* File: SRAM_regfile.pex.netlist
* Created: Mon Jan 25 14:50:35 2010
* Program "Calibre xRC"
* Version "v2007.2_34.24"
* 
.subckt SRAM_regfile  WL<11> WL<3> WL<7> WL<9> WL<10> WL<13> WL<14> WL<15>
+ WL<0> WL<1> WL<8> WL<12> WL<2> WL<4> WL<5> WL<6> VDD! BL_COL0<7> _BL_COL0<7>
+ BL_COL0<6> _BL_COL0<6> BL_COL0<5> _BL_COL0<5> BL_COL0<4> _BL_COL0<4> BL_COL0<3>
+ _BL_COL0<3> BL_COL0<2> _BL_COL0<2> BL_COL0<1> _BL_COL0<1> BL_COL0<0>
+ _BL_COL0<0> BL_COL1<7> _BL_COL1<7> BL_COL1<6> _BL_COL1<6> BL_COL1<5>
+ _BL_COL1<5> BL_COL1<4> _BL_COL1<4> BL_COL1<3> _BL_COL1<3> BL_COL1<2>
+ _BL_COL1<2> BL_COL1<1> _BL_COL1<1> BL_COL1<0> _BL_COL1<0> GND!
* 
mXI0<7>/XI4<7>/MM3 XI0<7>/XI4<7>/net23 XI0<7>/XI4<7>/net5 GND! GND! NMOS_VTG
+ L=5e-08 W=1.2e-07 AD=2.445e-14 AS=1.2e-14 PD=7.2e-07 PS=4.4e-07
mXI0<7>/XI4<0>/MM1 XI0<7>/XI4<0>/net5 XI0<7>/XI4<0>/net23 GND! GND! NMOS_VTG
+ L=5e-08 W=1.2e-07 AD=2.445e-14 AS=1.68e-14 PD=7.2e-07 PS=5.2e-07
mXI1<7>/XI4<7>/MM3 XI1<7>/XI4<7>/net23 XI1<7>/XI4<7>/net5 GND! GND! NMOS_VTG
+ L=5e-08 W=1.2e-07 AD=2.445e-14 AS=1.68e-14 PD=7.2e-07 PS=5.2e-07
mXI1<7>/XI4<0>/MM1 XI1<7>/XI4<0>/net5 XI1<7>/XI4<0>/net23 GND! GND! NMOS_VTG
+ L=5e-08 W=1.2e-07 AD=2.445e-14 AS=1.2e-14 PD=7.2e-07 PS=4.4e-07
mXI0<7>/XI4<7>/MM4 XI0<7>/XI4<7>/net23 XI0<7>/XI4<7>/net5 VDD! VDD! PMOS_VTG
+ L=5e-08 W=9e-08 AD=9e-15 AS=9e-15 PD=3.8e-07 PS=3.8e-07
mXI0<7>/XI4<0>/MM2 XI0<7>/XI4<0>/net5 XI0<7>/XI4<0>/net23 VDD! VDD! PMOS_VTG
+ L=5e-08 W=9e-08 AD=9e-15 AS=1.26e-14 PD=3.8e-07 PS=4.6e-07
mXI1<7>/XI4<7>/MM4 XI1<7>/XI4<7>/net23 XI1<7>/XI4<7>/net5 VDD! VDD! PMOS_VTG
+ L=5e-08 W=9e-08 AD=9e-15 AS=1.26e-14 PD=3.8e-07 PS=4.6e-07
mXI1<7>/XI4<0>/MM2 XI1<7>/XI4<0>/net5 XI1<7>/XI4<0>/net23 VDD! VDD! PMOS_VTG
+ L=5e-08 W=9e-08 AD=9e-15 AS=9e-15 PD=3.8e-07 PS=3.8e-07
mXI0<7>/XI4<7>/MM1 XI0<7>/XI4<7>/net5 XI0<7>/XI4<7>/net23 GND! GND! NMOS_VTG
+ L=5e-08 W=1.2e-07 AD=2.445e-14 AS=1.68e-14 PD=7.2e-07 PS=5.2e-07
mXI0<7>/XI4<6>/MM3 XI0<7>/XI4<6>/net23 XI0<7>/XI4<6>/net5 GND! GND! NMOS_VTG
+ L=5e-08 W=1.2e-07 AD=2.445e-14 AS=1.68e-14 PD=7.2e-07 PS=5.2e-07
mXI0<7>/XI4<6>/MM1 XI0<7>/XI4<6>/net5 XI0<7>/XI4<6>/net23 GND! GND! NMOS_VTG
+ L=5e-08 W=1.2e-07 AD=2.445e-14 AS=1.68e-14 PD=7.2e-07 PS=5.2e-07
mXI0<7>/XI4<5>/MM3 XI0<7>/XI4<5>/net23 XI0<7>/XI4<5>/net5 GND! GND! NMOS_VTG
+ L=5e-08 W=1.2e-07 AD=2.445e-14 AS=1.68e-14 PD=7.2e-07 PS=5.2e-07
mXI0<7>/XI4<5>/MM1 XI0<7>/XI4<5>/net5 XI0<7>/XI4<5>/net23 GND! GND! NMOS_VTG
+ L=5e-08 W=1.2e-07 AD=2.445e-14 AS=1.68e-14 PD=7.2e-07 PS=5.2e-07
mXI0<7>/XI4<4>/MM3 XI0<7>/XI4<4>/net23 XI0<7>/XI4<4>/net5 GND! GND! NMOS_VTG
+ L=5e-08 W=1.2e-07 AD=2.445e-14 AS=1.68e-14 PD=7.2e-07 PS=5.2e-07
mXI0<7>/XI4<4>/MM1 XI0<7>/XI4<4>/net5 XI0<7>/XI4<4>/net23 GND! GND! NMOS_VTG
+ L=5e-08 W=1.2e-07 AD=2.445e-14 AS=1.68e-14 PD=7.2e-07 PS=5.2e-07
mXI0<7>/XI4<3>/MM3 XI0<7>/XI4<3>/net23 XI0<7>/XI4<3>/net5 GND! GND! NMOS_VTG
+ L=5e-08 W=1.2e-07 AD=2.445e-14 AS=1.68e-14 PD=7.2e-07 PS=5.2e-07
mXI0<7>/XI4<3>/MM1 XI0<7>/XI4<3>/net5 XI0<7>/XI4<3>/net23 GND! GND! NMOS_VTG
+ L=5e-08 W=1.2e-07 AD=2.445e-14 AS=1.68e-14 PD=7.2e-07 PS=5.2e-07
mXI0<7>/XI4<2>/MM3 XI0<7>/XI4<2>/net23 XI0<7>/XI4<2>/net5 GND! GND! NMOS_VTG
+ L=5e-08 W=1.2e-07 AD=2.445e-14 AS=1.68e-14 PD=7.2e-07 PS=5.2e-07
mXI0<7>/XI4<2>/MM1 XI0<7>/XI4<2>/net5 XI0<7>/XI4<2>/net23 GND! GND! NMOS_VTG
+ L=5e-08 W=1.2e-07 AD=2.445e-14 AS=1.68e-14 PD=7.2e-07 PS=5.2e-07
mXI0<7>/XI4<1>/MM3 XI0<7>/XI4<1>/net23 XI0<7>/XI4<1>/net5 GND! GND! NMOS_VTG
+ L=5e-08 W=1.2e-07 AD=2.445e-14 AS=1.68e-14 PD=7.2e-07 PS=5.2e-07
mXI0<7>/XI4<1>/MM1 XI0<7>/XI4<1>/net5 XI0<7>/XI4<1>/net23 GND! GND! NMOS_VTG
+ L=5e-08 W=1.2e-07 AD=2.445e-14 AS=1.68e-14 PD=7.2e-07 PS=5.2e-07
mXI0<7>/XI4<0>/MM3 XI0<7>/XI4<0>/net23 XI0<7>/XI4<0>/net5 GND! GND! NMOS_VTG
+ L=5e-08 W=1.2e-07 AD=2.445e-14 AS=1.68e-14 PD=7.2e-07 PS=5.2e-07
mXI0<7>/XI4<7>/MM2 XI0<7>/XI4<7>/net5 XI0<7>/XI4<7>/net23 VDD! VDD! PMOS_VTG
+ L=5e-08 W=9e-08 AD=9e-15 AS=1.26e-14 PD=3.8e-07 PS=4.6e-07
mXI0<7>/XI4<6>/MM4 XI0<7>/XI4<6>/net23 XI0<7>/XI4<6>/net5 VDD! VDD! PMOS_VTG
+ L=5e-08 W=9e-08 AD=9e-15 AS=1.26e-14 PD=3.8e-07 PS=4.6e-07
mXI0<7>/XI4<6>/MM2 XI0<7>/XI4<6>/net5 XI0<7>/XI4<6>/net23 VDD! VDD! PMOS_VTG
+ L=5e-08 W=9e-08 AD=9e-15 AS=1.26e-14 PD=3.8e-07 PS=4.6e-07
mXI0<7>/XI4<5>/MM4 XI0<7>/XI4<5>/net23 XI0<7>/XI4<5>/net5 VDD! VDD! PMOS_VTG
+ L=5e-08 W=9e-08 AD=9e-15 AS=1.26e-14 PD=3.8e-07 PS=4.6e-07
mXI0<7>/XI4<5>/MM2 XI0<7>/XI4<5>/net5 XI0<7>/XI4<5>/net23 VDD! VDD! PMOS_VTG
+ L=5e-08 W=9e-08 AD=9e-15 AS=1.26e-14 PD=3.8e-07 PS=4.6e-07
mXI0<7>/XI4<4>/MM4 XI0<7>/XI4<4>/net23 XI0<7>/XI4<4>/net5 VDD! VDD! PMOS_VTG
+ L=5e-08 W=9e-08 AD=9e-15 AS=1.26e-14 PD=3.8e-07 PS=4.6e-07
mXI0<7>/XI4<4>/MM2 XI0<7>/XI4<4>/net5 XI0<7>/XI4<4>/net23 VDD! VDD! PMOS_VTG
+ L=5e-08 W=9e-08 AD=9e-15 AS=1.26e-14 PD=3.8e-07 PS=4.6e-07
mXI0<7>/XI4<3>/MM4 XI0<7>/XI4<3>/net23 XI0<7>/XI4<3>/net5 VDD! VDD! PMOS_VTG
+ L=5e-08 W=9e-08 AD=9e-15 AS=1.26e-14 PD=3.8e-07 PS=4.6e-07
mXI0<7>/XI4<3>/MM2 XI0<7>/XI4<3>/net5 XI0<7>/XI4<3>/net23 VDD! VDD! PMOS_VTG
+ L=5e-08 W=9e-08 AD=9e-15 AS=1.26e-14 PD=3.8e-07 PS=4.6e-07
mXI0<7>/XI4<2>/MM4 XI0<7>/XI4<2>/net23 XI0<7>/XI4<2>/net5 VDD! VDD! PMOS_VTG
+ L=5e-08 W=9e-08 AD=9e-15 AS=1.26e-14 PD=3.8e-07 PS=4.6e-07
mXI0<7>/XI4<2>/MM2 XI0<7>/XI4<2>/net5 XI0<7>/XI4<2>/net23 VDD! VDD! PMOS_VTG
+ L=5e-08 W=9e-08 AD=9e-15 AS=1.26e-14 PD=3.8e-07 PS=4.6e-07
mXI0<7>/XI4<1>/MM4 XI0<7>/XI4<1>/net23 XI0<7>/XI4<1>/net5 VDD! VDD! PMOS_VTG
+ L=5e-08 W=9e-08 AD=9e-15 AS=1.26e-14 PD=3.8e-07 PS=4.6e-07
mXI0<7>/XI4<1>/MM2 XI0<7>/XI4<1>/net5 XI0<7>/XI4<1>/net23 VDD! VDD! PMOS_VTG
+ L=5e-08 W=9e-08 AD=9e-15 AS=1.26e-14 PD=3.8e-07 PS=4.6e-07
mXI0<7>/XI4<0>/MM4 XI0<7>/XI4<0>/net23 XI0<7>/XI4<0>/net5 VDD! VDD! PMOS_VTG
+ L=5e-08 W=9e-08 AD=9e-15 AS=1.26e-14 PD=3.8e-07 PS=4.6e-07
mXI0<7>/XI4<7>/MM6 BL_COL0<7> WL<7> XI0<7>/XI4<7>/net23 GND! NMOS_VTG L=5e-08
+ W=9e-08 AD=1.26e-14 AS=2.445e-14 PD=4.6e-07 PS=7.2e-07
mXI0<7>/XI4<7>/MM5 XI0<7>/XI4<7>/net5 WL<7> _BL_COL0<7> GND! NMOS_VTG L=5e-08
+ W=9e-08 AD=2.445e-14 AS=1.26e-14 PD=7.2e-07 PS=4.6e-07
mXI0<7>/XI4<6>/MM6 BL_COL0<6> WL<7> XI0<7>/XI4<6>/net23 GND! NMOS_VTG L=5e-08
+ W=9e-08 AD=1.26e-14 AS=2.445e-14 PD=4.6e-07 PS=7.2e-07
mXI0<7>/XI4<6>/MM5 XI0<7>/XI4<6>/net5 WL<7> _BL_COL0<6> GND! NMOS_VTG L=5e-08
+ W=9e-08 AD=2.445e-14 AS=1.26e-14 PD=7.2e-07 PS=4.6e-07
mXI0<7>/XI4<5>/MM6 BL_COL0<5> WL<7> XI0<7>/XI4<5>/net23 GND! NMOS_VTG L=5e-08
+ W=9e-08 AD=1.26e-14 AS=2.445e-14 PD=4.6e-07 PS=7.2e-07
mXI0<7>/XI4<5>/MM5 XI0<7>/XI4<5>/net5 WL<7> _BL_COL0<5> GND! NMOS_VTG L=5e-08
+ W=9e-08 AD=2.445e-14 AS=1.26e-14 PD=7.2e-07 PS=4.6e-07
mXI0<7>/XI4<4>/MM6 BL_COL0<4> WL<7> XI0<7>/XI4<4>/net23 GND! NMOS_VTG L=5e-08
+ W=9e-08 AD=1.26e-14 AS=2.445e-14 PD=4.6e-07 PS=7.2e-07
mXI0<7>/XI4<4>/MM5 XI0<7>/XI4<4>/net5 WL<7> _BL_COL0<4> GND! NMOS_VTG L=5e-08
+ W=9e-08 AD=2.445e-14 AS=1.26e-14 PD=7.2e-07 PS=4.6e-07
mXI0<7>/XI4<3>/MM6 BL_COL0<3> WL<7> XI0<7>/XI4<3>/net23 GND! NMOS_VTG L=5e-08
+ W=9e-08 AD=1.26e-14 AS=2.445e-14 PD=4.6e-07 PS=7.2e-07
mXI0<7>/XI4<3>/MM5 XI0<7>/XI4<3>/net5 WL<7> _BL_COL0<3> GND! NMOS_VTG L=5e-08
+ W=9e-08 AD=2.445e-14 AS=1.26e-14 PD=7.2e-07 PS=4.6e-07
mXI0<7>/XI4<2>/MM6 BL_COL0<2> WL<7> XI0<7>/XI4<2>/net23 GND! NMOS_VTG L=5e-08
+ W=9e-08 AD=1.26e-14 AS=2.445e-14 PD=4.6e-07 PS=7.2e-07
mXI0<7>/XI4<2>/MM5 XI0<7>/XI4<2>/net5 WL<7> _BL_COL0<2> GND! NMOS_VTG L=5e-08
+ W=9e-08 AD=2.445e-14 AS=1.26e-14 PD=7.2e-07 PS=4.6e-07
mXI0<7>/XI4<1>/MM6 BL_COL0<1> WL<7> XI0<7>/XI4<1>/net23 GND! NMOS_VTG L=5e-08
+ W=9e-08 AD=1.26e-14 AS=2.445e-14 PD=4.6e-07 PS=7.2e-07
mXI0<7>/XI4<1>/MM5 XI0<7>/XI4<1>/net5 WL<7> _BL_COL0<1> GND! NMOS_VTG L=5e-08
+ W=9e-08 AD=2.445e-14 AS=1.26e-14 PD=7.2e-07 PS=4.6e-07
mXI0<7>/XI4<0>/MM6 BL_COL0<0> WL<7> XI0<7>/XI4<0>/net23 GND! NMOS_VTG L=5e-08
+ W=9e-08 AD=1.26e-14 AS=2.445e-14 PD=4.6e-07 PS=7.2e-07
mXI0<7>/XI4<0>/MM5 XI0<7>/XI4<0>/net5 WL<7> _BL_COL0<0> GND! NMOS_VTG L=5e-08
+ W=9e-08 AD=2.445e-14 AS=1.26e-14 PD=7.2e-07 PS=4.6e-07
mXI1<7>/XI4<7>/MM1 XI1<7>/XI4<7>/net5 XI1<7>/XI4<7>/net23 GND! GND! NMOS_VTG
+ L=5e-08 W=1.2e-07 AD=2.445e-14 AS=1.68e-14 PD=7.2e-07 PS=5.2e-07
mXI1<7>/XI4<6>/MM3 XI1<7>/XI4<6>/net23 XI1<7>/XI4<6>/net5 GND! GND! NMOS_VTG
+ L=5e-08 W=1.2e-07 AD=2.445e-14 AS=1.68e-14 PD=7.2e-07 PS=5.2e-07
mXI1<7>/XI4<6>/MM1 XI1<7>/XI4<6>/net5 XI1<7>/XI4<6>/net23 GND! GND! NMOS_VTG
+ L=5e-08 W=1.2e-07 AD=2.445e-14 AS=1.68e-14 PD=7.2e-07 PS=5.2e-07
mXI1<7>/XI4<5>/MM3 XI1<7>/XI4<5>/net23 XI1<7>/XI4<5>/net5 GND! GND! NMOS_VTG
+ L=5e-08 W=1.2e-07 AD=2.445e-14 AS=1.68e-14 PD=7.2e-07 PS=5.2e-07
mXI1<7>/XI4<5>/MM1 XI1<7>/XI4<5>/net5 XI1<7>/XI4<5>/net23 GND! GND! NMOS_VTG
+ L=5e-08 W=1.2e-07 AD=2.445e-14 AS=1.68e-14 PD=7.2e-07 PS=5.2e-07
mXI1<7>/XI4<4>/MM3 XI1<7>/XI4<4>/net23 XI1<7>/XI4<4>/net5 GND! GND! NMOS_VTG
+ L=5e-08 W=1.2e-07 AD=2.445e-14 AS=1.68e-14 PD=7.2e-07 PS=5.2e-07
mXI1<7>/XI4<4>/MM1 XI1<7>/XI4<4>/net5 XI1<7>/XI4<4>/net23 GND! GND! NMOS_VTG
+ L=5e-08 W=1.2e-07 AD=2.445e-14 AS=1.68e-14 PD=7.2e-07 PS=5.2e-07
mXI1<7>/XI4<3>/MM3 XI1<7>/XI4<3>/net23 XI1<7>/XI4<3>/net5 GND! GND! NMOS_VTG
+ L=5e-08 W=1.2e-07 AD=2.445e-14 AS=1.68e-14 PD=7.2e-07 PS=5.2e-07
mXI1<7>/XI4<3>/MM1 XI1<7>/XI4<3>/net5 XI1<7>/XI4<3>/net23 GND! GND! NMOS_VTG
+ L=5e-08 W=1.2e-07 AD=2.445e-14 AS=1.68e-14 PD=7.2e-07 PS=5.2e-07
mXI1<7>/XI4<2>/MM3 XI1<7>/XI4<2>/net23 XI1<7>/XI4<2>/net5 GND! GND! NMOS_VTG
+ L=5e-08 W=1.2e-07 AD=2.445e-14 AS=1.68e-14 PD=7.2e-07 PS=5.2e-07
mXI1<7>/XI4<2>/MM1 XI1<7>/XI4<2>/net5 XI1<7>/XI4<2>/net23 GND! GND! NMOS_VTG
+ L=5e-08 W=1.2e-07 AD=2.445e-14 AS=1.68e-14 PD=7.2e-07 PS=5.2e-07
mXI1<7>/XI4<1>/MM3 XI1<7>/XI4<1>/net23 XI1<7>/XI4<1>/net5 GND! GND! NMOS_VTG
+ L=5e-08 W=1.2e-07 AD=2.445e-14 AS=1.68e-14 PD=7.2e-07 PS=5.2e-07
mXI1<7>/XI4<1>/MM1 XI1<7>/XI4<1>/net5 XI1<7>/XI4<1>/net23 GND! GND! NMOS_VTG
+ L=5e-08 W=1.2e-07 AD=2.445e-14 AS=1.68e-14 PD=7.2e-07 PS=5.2e-07
mXI1<7>/XI4<0>/MM3 XI1<7>/XI4<0>/net23 XI1<7>/XI4<0>/net5 GND! GND! NMOS_VTG
+ L=5e-08 W=1.2e-07 AD=2.445e-14 AS=1.68e-14 PD=7.2e-07 PS=5.2e-07
mXI1<7>/XI4<7>/MM2 XI1<7>/XI4<7>/net5 XI1<7>/XI4<7>/net23 VDD! VDD! PMOS_VTG
+ L=5e-08 W=9e-08 AD=9e-15 AS=1.26e-14 PD=3.8e-07 PS=4.6e-07
mXI1<7>/XI4<6>/MM4 XI1<7>/XI4<6>/net23 XI1<7>/XI4<6>/net5 VDD! VDD! PMOS_VTG
+ L=5e-08 W=9e-08 AD=9e-15 AS=1.26e-14 PD=3.8e-07 PS=4.6e-07
mXI1<7>/XI4<6>/MM2 XI1<7>/XI4<6>/net5 XI1<7>/XI4<6>/net23 VDD! VDD! PMOS_VTG
+ L=5e-08 W=9e-08 AD=9e-15 AS=1.26e-14 PD=3.8e-07 PS=4.6e-07
mXI1<7>/XI4<5>/MM4 XI1<7>/XI4<5>/net23 XI1<7>/XI4<5>/net5 VDD! VDD! PMOS_VTG
+ L=5e-08 W=9e-08 AD=9e-15 AS=1.26e-14 PD=3.8e-07 PS=4.6e-07
mXI1<7>/XI4<5>/MM2 XI1<7>/XI4<5>/net5 XI1<7>/XI4<5>/net23 VDD! VDD! PMOS_VTG
+ L=5e-08 W=9e-08 AD=9e-15 AS=1.26e-14 PD=3.8e-07 PS=4.6e-07
mXI1<7>/XI4<4>/MM4 XI1<7>/XI4<4>/net23 XI1<7>/XI4<4>/net5 VDD! VDD! PMOS_VTG
+ L=5e-08 W=9e-08 AD=9e-15 AS=1.26e-14 PD=3.8e-07 PS=4.6e-07
mXI1<7>/XI4<4>/MM2 XI1<7>/XI4<4>/net5 XI1<7>/XI4<4>/net23 VDD! VDD! PMOS_VTG
+ L=5e-08 W=9e-08 AD=9e-15 AS=1.26e-14 PD=3.8e-07 PS=4.6e-07
mXI1<7>/XI4<3>/MM4 XI1<7>/XI4<3>/net23 XI1<7>/XI4<3>/net5 VDD! VDD! PMOS_VTG
+ L=5e-08 W=9e-08 AD=9e-15 AS=1.26e-14 PD=3.8e-07 PS=4.6e-07
mXI1<7>/XI4<3>/MM2 XI1<7>/XI4<3>/net5 XI1<7>/XI4<3>/net23 VDD! VDD! PMOS_VTG
+ L=5e-08 W=9e-08 AD=9e-15 AS=1.26e-14 PD=3.8e-07 PS=4.6e-07
mXI1<7>/XI4<2>/MM4 XI1<7>/XI4<2>/net23 XI1<7>/XI4<2>/net5 VDD! VDD! PMOS_VTG
+ L=5e-08 W=9e-08 AD=9e-15 AS=1.26e-14 PD=3.8e-07 PS=4.6e-07
mXI1<7>/XI4<2>/MM2 XI1<7>/XI4<2>/net5 XI1<7>/XI4<2>/net23 VDD! VDD! PMOS_VTG
+ L=5e-08 W=9e-08 AD=9e-15 AS=1.26e-14 PD=3.8e-07 PS=4.6e-07
mXI1<7>/XI4<1>/MM4 XI1<7>/XI4<1>/net23 XI1<7>/XI4<1>/net5 VDD! VDD! PMOS_VTG
+ L=5e-08 W=9e-08 AD=9e-15 AS=1.26e-14 PD=3.8e-07 PS=4.6e-07
mXI1<7>/XI4<1>/MM2 XI1<7>/XI4<1>/net5 XI1<7>/XI4<1>/net23 VDD! VDD! PMOS_VTG
+ L=5e-08 W=9e-08 AD=9e-15 AS=1.26e-14 PD=3.8e-07 PS=4.6e-07
mXI1<7>/XI4<0>/MM4 XI1<7>/XI4<0>/net23 XI1<7>/XI4<0>/net5 VDD! VDD! PMOS_VTG
+ L=5e-08 W=9e-08 AD=9e-15 AS=1.26e-14 PD=3.8e-07 PS=4.6e-07
mXI1<7>/XI4<7>/MM6 BL_COL1<7> WL<7> XI1<7>/XI4<7>/net23 GND! NMOS_VTG L=5e-08
+ W=9e-08 AD=1.26e-14 AS=2.445e-14 PD=4.6e-07 PS=7.2e-07
mXI1<7>/XI4<7>/MM5 XI1<7>/XI4<7>/net5 WL<7> _BL_COL1<7> GND! NMOS_VTG L=5e-08
+ W=9e-08 AD=2.445e-14 AS=1.26e-14 PD=7.2e-07 PS=4.6e-07
mXI1<7>/XI4<6>/MM6 BL_COL1<6> WL<7> XI1<7>/XI4<6>/net23 GND! NMOS_VTG L=5e-08
+ W=9e-08 AD=1.26e-14 AS=2.445e-14 PD=4.6e-07 PS=7.2e-07
mXI1<7>/XI4<6>/MM5 XI1<7>/XI4<6>/net5 WL<7> _BL_COL1<6> GND! NMOS_VTG L=5e-08
+ W=9e-08 AD=2.445e-14 AS=1.26e-14 PD=7.2e-07 PS=4.6e-07
mXI1<7>/XI4<5>/MM6 BL_COL1<5> WL<7> XI1<7>/XI4<5>/net23 GND! NMOS_VTG L=5e-08
+ W=9e-08 AD=1.26e-14 AS=2.445e-14 PD=4.6e-07 PS=7.2e-07
mXI1<7>/XI4<5>/MM5 XI1<7>/XI4<5>/net5 WL<7> _BL_COL1<5> GND! NMOS_VTG L=5e-08
+ W=9e-08 AD=2.445e-14 AS=1.26e-14 PD=7.2e-07 PS=4.6e-07
mXI1<7>/XI4<4>/MM6 BL_COL1<4> WL<7> XI1<7>/XI4<4>/net23 GND! NMOS_VTG L=5e-08
+ W=9e-08 AD=1.26e-14 AS=2.445e-14 PD=4.6e-07 PS=7.2e-07
mXI1<7>/XI4<4>/MM5 XI1<7>/XI4<4>/net5 WL<7> _BL_COL1<4> GND! NMOS_VTG L=5e-08
+ W=9e-08 AD=2.445e-14 AS=1.26e-14 PD=7.2e-07 PS=4.6e-07
mXI1<7>/XI4<3>/MM6 BL_COL1<3> WL<7> XI1<7>/XI4<3>/net23 GND! NMOS_VTG L=5e-08
+ W=9e-08 AD=1.26e-14 AS=2.445e-14 PD=4.6e-07 PS=7.2e-07
mXI1<7>/XI4<3>/MM5 XI1<7>/XI4<3>/net5 WL<7> _BL_COL1<3> GND! NMOS_VTG L=5e-08
+ W=9e-08 AD=2.445e-14 AS=1.26e-14 PD=7.2e-07 PS=4.6e-07
mXI1<7>/XI4<2>/MM6 BL_COL1<2> WL<7> XI1<7>/XI4<2>/net23 GND! NMOS_VTG L=5e-08
+ W=9e-08 AD=1.26e-14 AS=2.445e-14 PD=4.6e-07 PS=7.2e-07
mXI1<7>/XI4<2>/MM5 XI1<7>/XI4<2>/net5 WL<7> _BL_COL1<2> GND! NMOS_VTG L=5e-08
+ W=9e-08 AD=2.445e-14 AS=1.26e-14 PD=7.2e-07 PS=4.6e-07
mXI1<7>/XI4<1>/MM6 BL_COL1<1> WL<7> XI1<7>/XI4<1>/net23 GND! NMOS_VTG L=5e-08
+ W=9e-08 AD=1.26e-14 AS=2.445e-14 PD=4.6e-07 PS=7.2e-07
mXI1<7>/XI4<1>/MM5 XI1<7>/XI4<1>/net5 WL<7> _BL_COL1<1> GND! NMOS_VTG L=5e-08
+ W=9e-08 AD=2.445e-14 AS=1.26e-14 PD=7.2e-07 PS=4.6e-07
mXI1<7>/XI4<0>/MM6 BL_COL1<0> WL<7> XI1<7>/XI4<0>/net23 GND! NMOS_VTG L=5e-08
+ W=9e-08 AD=1.26e-14 AS=2.445e-14 PD=4.6e-07 PS=7.2e-07
mXI1<7>/XI4<0>/MM5 XI1<7>/XI4<0>/net5 WL<7> _BL_COL1<0> GND! NMOS_VTG L=5e-08
+ W=9e-08 AD=2.445e-14 AS=1.26e-14 PD=7.2e-07 PS=4.6e-07
mXI0<6>/XI4<7>/MM3 XI0<6>/XI4<7>/net23 XI0<6>/XI4<7>/net5 GND! GND! NMOS_VTG
+ L=5e-08 W=1.2e-07 AD=2.445e-14 AS=1.2e-14 PD=7.2e-07 PS=4.4e-07
mXI0<6>/XI4<0>/MM1 XI0<6>/XI4<0>/net5 XI0<6>/XI4<0>/net23 GND! GND! NMOS_VTG
+ L=5e-08 W=1.2e-07 AD=2.445e-14 AS=1.68e-14 PD=7.2e-07 PS=5.2e-07
mXI1<6>/XI4<7>/MM3 XI1<6>/XI4<7>/net23 XI1<6>/XI4<7>/net5 GND! GND! NMOS_VTG
+ L=5e-08 W=1.2e-07 AD=2.445e-14 AS=1.68e-14 PD=7.2e-07 PS=5.2e-07
mXI1<6>/XI4<0>/MM1 XI1<6>/XI4<0>/net5 XI1<6>/XI4<0>/net23 GND! GND! NMOS_VTG
+ L=5e-08 W=1.2e-07 AD=2.445e-14 AS=1.2e-14 PD=7.2e-07 PS=4.4e-07
mXI0<6>/XI4<7>/MM4 XI0<6>/XI4<7>/net23 XI0<6>/XI4<7>/net5 VDD! VDD! PMOS_VTG
+ L=5e-08 W=9e-08 AD=9e-15 AS=9e-15 PD=3.8e-07 PS=3.8e-07
mXI0<6>/XI4<0>/MM2 XI0<6>/XI4<0>/net5 XI0<6>/XI4<0>/net23 VDD! VDD! PMOS_VTG
+ L=5e-08 W=9e-08 AD=9e-15 AS=1.26e-14 PD=3.8e-07 PS=4.6e-07
mXI1<6>/XI4<7>/MM4 XI1<6>/XI4<7>/net23 XI1<6>/XI4<7>/net5 VDD! VDD! PMOS_VTG
+ L=5e-08 W=9e-08 AD=9e-15 AS=1.26e-14 PD=3.8e-07 PS=4.6e-07
mXI1<6>/XI4<0>/MM2 XI1<6>/XI4<0>/net5 XI1<6>/XI4<0>/net23 VDD! VDD! PMOS_VTG
+ L=5e-08 W=9e-08 AD=9e-15 AS=9e-15 PD=3.8e-07 PS=3.8e-07
mXI0<6>/XI4<7>/MM1 XI0<6>/XI4<7>/net5 XI0<6>/XI4<7>/net23 GND! GND! NMOS_VTG
+ L=5e-08 W=1.2e-07 AD=2.445e-14 AS=1.68e-14 PD=7.2e-07 PS=5.2e-07
mXI0<6>/XI4<6>/MM3 XI0<6>/XI4<6>/net23 XI0<6>/XI4<6>/net5 GND! GND! NMOS_VTG
+ L=5e-08 W=1.2e-07 AD=2.445e-14 AS=1.68e-14 PD=7.2e-07 PS=5.2e-07
mXI0<6>/XI4<6>/MM1 XI0<6>/XI4<6>/net5 XI0<6>/XI4<6>/net23 GND! GND! NMOS_VTG
+ L=5e-08 W=1.2e-07 AD=2.445e-14 AS=1.68e-14 PD=7.2e-07 PS=5.2e-07
mXI0<6>/XI4<5>/MM3 XI0<6>/XI4<5>/net23 XI0<6>/XI4<5>/net5 GND! GND! NMOS_VTG
+ L=5e-08 W=1.2e-07 AD=2.445e-14 AS=1.68e-14 PD=7.2e-07 PS=5.2e-07
mXI0<6>/XI4<5>/MM1 XI0<6>/XI4<5>/net5 XI0<6>/XI4<5>/net23 GND! GND! NMOS_VTG
+ L=5e-08 W=1.2e-07 AD=2.445e-14 AS=1.68e-14 PD=7.2e-07 PS=5.2e-07
mXI0<6>/XI4<4>/MM3 XI0<6>/XI4<4>/net23 XI0<6>/XI4<4>/net5 GND! GND! NMOS_VTG
+ L=5e-08 W=1.2e-07 AD=2.445e-14 AS=1.68e-14 PD=7.2e-07 PS=5.2e-07
mXI0<6>/XI4<4>/MM1 XI0<6>/XI4<4>/net5 XI0<6>/XI4<4>/net23 GND! GND! NMOS_VTG
+ L=5e-08 W=1.2e-07 AD=2.445e-14 AS=1.68e-14 PD=7.2e-07 PS=5.2e-07
mXI0<6>/XI4<3>/MM3 XI0<6>/XI4<3>/net23 XI0<6>/XI4<3>/net5 GND! GND! NMOS_VTG
+ L=5e-08 W=1.2e-07 AD=2.445e-14 AS=1.68e-14 PD=7.2e-07 PS=5.2e-07
mXI0<6>/XI4<3>/MM1 XI0<6>/XI4<3>/net5 XI0<6>/XI4<3>/net23 GND! GND! NMOS_VTG
+ L=5e-08 W=1.2e-07 AD=2.445e-14 AS=1.68e-14 PD=7.2e-07 PS=5.2e-07
mXI0<6>/XI4<2>/MM3 XI0<6>/XI4<2>/net23 XI0<6>/XI4<2>/net5 GND! GND! NMOS_VTG
+ L=5e-08 W=1.2e-07 AD=2.445e-14 AS=1.68e-14 PD=7.2e-07 PS=5.2e-07
mXI0<6>/XI4<2>/MM1 XI0<6>/XI4<2>/net5 XI0<6>/XI4<2>/net23 GND! GND! NMOS_VTG
+ L=5e-08 W=1.2e-07 AD=2.445e-14 AS=1.68e-14 PD=7.2e-07 PS=5.2e-07
mXI0<6>/XI4<1>/MM3 XI0<6>/XI4<1>/net23 XI0<6>/XI4<1>/net5 GND! GND! NMOS_VTG
+ L=5e-08 W=1.2e-07 AD=2.445e-14 AS=1.68e-14 PD=7.2e-07 PS=5.2e-07
mXI0<6>/XI4<1>/MM1 XI0<6>/XI4<1>/net5 XI0<6>/XI4<1>/net23 GND! GND! NMOS_VTG
+ L=5e-08 W=1.2e-07 AD=2.445e-14 AS=1.68e-14 PD=7.2e-07 PS=5.2e-07
mXI0<6>/XI4<0>/MM3 XI0<6>/XI4<0>/net23 XI0<6>/XI4<0>/net5 GND! GND! NMOS_VTG
+ L=5e-08 W=1.2e-07 AD=2.445e-14 AS=1.68e-14 PD=7.2e-07 PS=5.2e-07
mXI0<6>/XI4<7>/MM2 XI0<6>/XI4<7>/net5 XI0<6>/XI4<7>/net23 VDD! VDD! PMOS_VTG
+ L=5e-08 W=9e-08 AD=9e-15 AS=1.26e-14 PD=3.8e-07 PS=4.6e-07
mXI0<6>/XI4<6>/MM4 XI0<6>/XI4<6>/net23 XI0<6>/XI4<6>/net5 VDD! VDD! PMOS_VTG
+ L=5e-08 W=9e-08 AD=9e-15 AS=1.26e-14 PD=3.8e-07 PS=4.6e-07
mXI0<6>/XI4<6>/MM2 XI0<6>/XI4<6>/net5 XI0<6>/XI4<6>/net23 VDD! VDD! PMOS_VTG
+ L=5e-08 W=9e-08 AD=9e-15 AS=1.26e-14 PD=3.8e-07 PS=4.6e-07
mXI0<6>/XI4<5>/MM4 XI0<6>/XI4<5>/net23 XI0<6>/XI4<5>/net5 VDD! VDD! PMOS_VTG
+ L=5e-08 W=9e-08 AD=9e-15 AS=1.26e-14 PD=3.8e-07 PS=4.6e-07
mXI0<6>/XI4<5>/MM2 XI0<6>/XI4<5>/net5 XI0<6>/XI4<5>/net23 VDD! VDD! PMOS_VTG
+ L=5e-08 W=9e-08 AD=9e-15 AS=1.26e-14 PD=3.8e-07 PS=4.6e-07
mXI0<6>/XI4<4>/MM4 XI0<6>/XI4<4>/net23 XI0<6>/XI4<4>/net5 VDD! VDD! PMOS_VTG
+ L=5e-08 W=9e-08 AD=9e-15 AS=1.26e-14 PD=3.8e-07 PS=4.6e-07
mXI0<6>/XI4<4>/MM2 XI0<6>/XI4<4>/net5 XI0<6>/XI4<4>/net23 VDD! VDD! PMOS_VTG
+ L=5e-08 W=9e-08 AD=9e-15 AS=1.26e-14 PD=3.8e-07 PS=4.6e-07
mXI0<6>/XI4<3>/MM4 XI0<6>/XI4<3>/net23 XI0<6>/XI4<3>/net5 VDD! VDD! PMOS_VTG
+ L=5e-08 W=9e-08 AD=9e-15 AS=1.26e-14 PD=3.8e-07 PS=4.6e-07
mXI0<6>/XI4<3>/MM2 XI0<6>/XI4<3>/net5 XI0<6>/XI4<3>/net23 VDD! VDD! PMOS_VTG
+ L=5e-08 W=9e-08 AD=9e-15 AS=1.26e-14 PD=3.8e-07 PS=4.6e-07
mXI0<6>/XI4<2>/MM4 XI0<6>/XI4<2>/net23 XI0<6>/XI4<2>/net5 VDD! VDD! PMOS_VTG
+ L=5e-08 W=9e-08 AD=9e-15 AS=1.26e-14 PD=3.8e-07 PS=4.6e-07
mXI0<6>/XI4<2>/MM2 XI0<6>/XI4<2>/net5 XI0<6>/XI4<2>/net23 VDD! VDD! PMOS_VTG
+ L=5e-08 W=9e-08 AD=9e-15 AS=1.26e-14 PD=3.8e-07 PS=4.6e-07
mXI0<6>/XI4<1>/MM4 XI0<6>/XI4<1>/net23 XI0<6>/XI4<1>/net5 VDD! VDD! PMOS_VTG
+ L=5e-08 W=9e-08 AD=9e-15 AS=1.26e-14 PD=3.8e-07 PS=4.6e-07
mXI0<6>/XI4<1>/MM2 XI0<6>/XI4<1>/net5 XI0<6>/XI4<1>/net23 VDD! VDD! PMOS_VTG
+ L=5e-08 W=9e-08 AD=9e-15 AS=1.26e-14 PD=3.8e-07 PS=4.6e-07
mXI0<6>/XI4<0>/MM4 XI0<6>/XI4<0>/net23 XI0<6>/XI4<0>/net5 VDD! VDD! PMOS_VTG
+ L=5e-08 W=9e-08 AD=9e-15 AS=1.26e-14 PD=3.8e-07 PS=4.6e-07
mXI0<6>/XI4<7>/MM6 BL_COL0<7> WL<6> XI0<6>/XI4<7>/net23 GND! NMOS_VTG L=5e-08
+ W=9e-08 AD=1.26e-14 AS=2.445e-14 PD=4.6e-07 PS=7.2e-07
mXI0<6>/XI4<7>/MM5 XI0<6>/XI4<7>/net5 WL<6> _BL_COL0<7> GND! NMOS_VTG L=5e-08
+ W=9e-08 AD=2.445e-14 AS=1.26e-14 PD=7.2e-07 PS=4.6e-07
mXI0<6>/XI4<6>/MM6 BL_COL0<6> WL<6> XI0<6>/XI4<6>/net23 GND! NMOS_VTG L=5e-08
+ W=9e-08 AD=1.26e-14 AS=2.445e-14 PD=4.6e-07 PS=7.2e-07
mXI0<6>/XI4<6>/MM5 XI0<6>/XI4<6>/net5 WL<6> _BL_COL0<6> GND! NMOS_VTG L=5e-08
+ W=9e-08 AD=2.445e-14 AS=1.26e-14 PD=7.2e-07 PS=4.6e-07
mXI0<6>/XI4<5>/MM6 BL_COL0<5> WL<6> XI0<6>/XI4<5>/net23 GND! NMOS_VTG L=5e-08
+ W=9e-08 AD=1.26e-14 AS=2.445e-14 PD=4.6e-07 PS=7.2e-07
mXI0<6>/XI4<5>/MM5 XI0<6>/XI4<5>/net5 WL<6> _BL_COL0<5> GND! NMOS_VTG L=5e-08
+ W=9e-08 AD=2.445e-14 AS=1.26e-14 PD=7.2e-07 PS=4.6e-07
mXI0<6>/XI4<4>/MM6 BL_COL0<4> WL<6> XI0<6>/XI4<4>/net23 GND! NMOS_VTG L=5e-08
+ W=9e-08 AD=1.26e-14 AS=2.445e-14 PD=4.6e-07 PS=7.2e-07
mXI0<6>/XI4<4>/MM5 XI0<6>/XI4<4>/net5 WL<6> _BL_COL0<4> GND! NMOS_VTG L=5e-08
+ W=9e-08 AD=2.445e-14 AS=1.26e-14 PD=7.2e-07 PS=4.6e-07
mXI0<6>/XI4<3>/MM6 BL_COL0<3> WL<6> XI0<6>/XI4<3>/net23 GND! NMOS_VTG L=5e-08
+ W=9e-08 AD=1.26e-14 AS=2.445e-14 PD=4.6e-07 PS=7.2e-07
mXI0<6>/XI4<3>/MM5 XI0<6>/XI4<3>/net5 WL<6> _BL_COL0<3> GND! NMOS_VTG L=5e-08
+ W=9e-08 AD=2.445e-14 AS=1.26e-14 PD=7.2e-07 PS=4.6e-07
mXI0<6>/XI4<2>/MM6 BL_COL0<2> WL<6> XI0<6>/XI4<2>/net23 GND! NMOS_VTG L=5e-08
+ W=9e-08 AD=1.26e-14 AS=2.445e-14 PD=4.6e-07 PS=7.2e-07
mXI0<6>/XI4<2>/MM5 XI0<6>/XI4<2>/net5 WL<6> _BL_COL0<2> GND! NMOS_VTG L=5e-08
+ W=9e-08 AD=2.445e-14 AS=1.26e-14 PD=7.2e-07 PS=4.6e-07
mXI0<6>/XI4<1>/MM6 BL_COL0<1> WL<6> XI0<6>/XI4<1>/net23 GND! NMOS_VTG L=5e-08
+ W=9e-08 AD=1.26e-14 AS=2.445e-14 PD=4.6e-07 PS=7.2e-07
mXI0<6>/XI4<1>/MM5 XI0<6>/XI4<1>/net5 WL<6> _BL_COL0<1> GND! NMOS_VTG L=5e-08
+ W=9e-08 AD=2.445e-14 AS=1.26e-14 PD=7.2e-07 PS=4.6e-07
mXI0<6>/XI4<0>/MM6 BL_COL0<0> WL<6> XI0<6>/XI4<0>/net23 GND! NMOS_VTG L=5e-08
+ W=9e-08 AD=1.26e-14 AS=2.445e-14 PD=4.6e-07 PS=7.2e-07
mXI0<6>/XI4<0>/MM5 XI0<6>/XI4<0>/net5 WL<6> _BL_COL0<0> GND! NMOS_VTG L=5e-08
+ W=9e-08 AD=2.445e-14 AS=1.26e-14 PD=7.2e-07 PS=4.6e-07
mXI1<6>/XI4<7>/MM1 XI1<6>/XI4<7>/net5 XI1<6>/XI4<7>/net23 GND! GND! NMOS_VTG
+ L=5e-08 W=1.2e-07 AD=2.445e-14 AS=1.68e-14 PD=7.2e-07 PS=5.2e-07
mXI1<6>/XI4<6>/MM3 XI1<6>/XI4<6>/net23 XI1<6>/XI4<6>/net5 GND! GND! NMOS_VTG
+ L=5e-08 W=1.2e-07 AD=2.445e-14 AS=1.68e-14 PD=7.2e-07 PS=5.2e-07
mXI1<6>/XI4<6>/MM1 XI1<6>/XI4<6>/net5 XI1<6>/XI4<6>/net23 GND! GND! NMOS_VTG
+ L=5e-08 W=1.2e-07 AD=2.445e-14 AS=1.68e-14 PD=7.2e-07 PS=5.2e-07
mXI1<6>/XI4<5>/MM3 XI1<6>/XI4<5>/net23 XI1<6>/XI4<5>/net5 GND! GND! NMOS_VTG
+ L=5e-08 W=1.2e-07 AD=2.445e-14 AS=1.68e-14 PD=7.2e-07 PS=5.2e-07
mXI1<6>/XI4<5>/MM1 XI1<6>/XI4<5>/net5 XI1<6>/XI4<5>/net23 GND! GND! NMOS_VTG
+ L=5e-08 W=1.2e-07 AD=2.445e-14 AS=1.68e-14 PD=7.2e-07 PS=5.2e-07
mXI1<6>/XI4<4>/MM3 XI1<6>/XI4<4>/net23 XI1<6>/XI4<4>/net5 GND! GND! NMOS_VTG
+ L=5e-08 W=1.2e-07 AD=2.445e-14 AS=1.68e-14 PD=7.2e-07 PS=5.2e-07
mXI1<6>/XI4<4>/MM1 XI1<6>/XI4<4>/net5 XI1<6>/XI4<4>/net23 GND! GND! NMOS_VTG
+ L=5e-08 W=1.2e-07 AD=2.445e-14 AS=1.68e-14 PD=7.2e-07 PS=5.2e-07
mXI1<6>/XI4<3>/MM3 XI1<6>/XI4<3>/net23 XI1<6>/XI4<3>/net5 GND! GND! NMOS_VTG
+ L=5e-08 W=1.2e-07 AD=2.445e-14 AS=1.68e-14 PD=7.2e-07 PS=5.2e-07
mXI1<6>/XI4<3>/MM1 XI1<6>/XI4<3>/net5 XI1<6>/XI4<3>/net23 GND! GND! NMOS_VTG
+ L=5e-08 W=1.2e-07 AD=2.445e-14 AS=1.68e-14 PD=7.2e-07 PS=5.2e-07
mXI1<6>/XI4<2>/MM3 XI1<6>/XI4<2>/net23 XI1<6>/XI4<2>/net5 GND! GND! NMOS_VTG
+ L=5e-08 W=1.2e-07 AD=2.445e-14 AS=1.68e-14 PD=7.2e-07 PS=5.2e-07
mXI1<6>/XI4<2>/MM1 XI1<6>/XI4<2>/net5 XI1<6>/XI4<2>/net23 GND! GND! NMOS_VTG
+ L=5e-08 W=1.2e-07 AD=2.445e-14 AS=1.68e-14 PD=7.2e-07 PS=5.2e-07
mXI1<6>/XI4<1>/MM3 XI1<6>/XI4<1>/net23 XI1<6>/XI4<1>/net5 GND! GND! NMOS_VTG
+ L=5e-08 W=1.2e-07 AD=2.445e-14 AS=1.68e-14 PD=7.2e-07 PS=5.2e-07
mXI1<6>/XI4<1>/MM1 XI1<6>/XI4<1>/net5 XI1<6>/XI4<1>/net23 GND! GND! NMOS_VTG
+ L=5e-08 W=1.2e-07 AD=2.445e-14 AS=1.68e-14 PD=7.2e-07 PS=5.2e-07
mXI1<6>/XI4<0>/MM3 XI1<6>/XI4<0>/net23 XI1<6>/XI4<0>/net5 GND! GND! NMOS_VTG
+ L=5e-08 W=1.2e-07 AD=2.445e-14 AS=1.68e-14 PD=7.2e-07 PS=5.2e-07
mXI1<6>/XI4<7>/MM2 XI1<6>/XI4<7>/net5 XI1<6>/XI4<7>/net23 VDD! VDD! PMOS_VTG
+ L=5e-08 W=9e-08 AD=9e-15 AS=1.26e-14 PD=3.8e-07 PS=4.6e-07
mXI1<6>/XI4<6>/MM4 XI1<6>/XI4<6>/net23 XI1<6>/XI4<6>/net5 VDD! VDD! PMOS_VTG
+ L=5e-08 W=9e-08 AD=9e-15 AS=1.26e-14 PD=3.8e-07 PS=4.6e-07
mXI1<6>/XI4<6>/MM2 XI1<6>/XI4<6>/net5 XI1<6>/XI4<6>/net23 VDD! VDD! PMOS_VTG
+ L=5e-08 W=9e-08 AD=9e-15 AS=1.26e-14 PD=3.8e-07 PS=4.6e-07
mXI1<6>/XI4<5>/MM4 XI1<6>/XI4<5>/net23 XI1<6>/XI4<5>/net5 VDD! VDD! PMOS_VTG
+ L=5e-08 W=9e-08 AD=9e-15 AS=1.26e-14 PD=3.8e-07 PS=4.6e-07
mXI1<6>/XI4<5>/MM2 XI1<6>/XI4<5>/net5 XI1<6>/XI4<5>/net23 VDD! VDD! PMOS_VTG
+ L=5e-08 W=9e-08 AD=9e-15 AS=1.26e-14 PD=3.8e-07 PS=4.6e-07
mXI1<6>/XI4<4>/MM4 XI1<6>/XI4<4>/net23 XI1<6>/XI4<4>/net5 VDD! VDD! PMOS_VTG
+ L=5e-08 W=9e-08 AD=9e-15 AS=1.26e-14 PD=3.8e-07 PS=4.6e-07
mXI1<6>/XI4<4>/MM2 XI1<6>/XI4<4>/net5 XI1<6>/XI4<4>/net23 VDD! VDD! PMOS_VTG
+ L=5e-08 W=9e-08 AD=9e-15 AS=1.26e-14 PD=3.8e-07 PS=4.6e-07
mXI1<6>/XI4<3>/MM4 XI1<6>/XI4<3>/net23 XI1<6>/XI4<3>/net5 VDD! VDD! PMOS_VTG
+ L=5e-08 W=9e-08 AD=9e-15 AS=1.26e-14 PD=3.8e-07 PS=4.6e-07
mXI1<6>/XI4<3>/MM2 XI1<6>/XI4<3>/net5 XI1<6>/XI4<3>/net23 VDD! VDD! PMOS_VTG
+ L=5e-08 W=9e-08 AD=9e-15 AS=1.26e-14 PD=3.8e-07 PS=4.6e-07
mXI1<6>/XI4<2>/MM4 XI1<6>/XI4<2>/net23 XI1<6>/XI4<2>/net5 VDD! VDD! PMOS_VTG
+ L=5e-08 W=9e-08 AD=9e-15 AS=1.26e-14 PD=3.8e-07 PS=4.6e-07
mXI1<6>/XI4<2>/MM2 XI1<6>/XI4<2>/net5 XI1<6>/XI4<2>/net23 VDD! VDD! PMOS_VTG
+ L=5e-08 W=9e-08 AD=9e-15 AS=1.26e-14 PD=3.8e-07 PS=4.6e-07
mXI1<6>/XI4<1>/MM4 XI1<6>/XI4<1>/net23 XI1<6>/XI4<1>/net5 VDD! VDD! PMOS_VTG
+ L=5e-08 W=9e-08 AD=9e-15 AS=1.26e-14 PD=3.8e-07 PS=4.6e-07
mXI1<6>/XI4<1>/MM2 XI1<6>/XI4<1>/net5 XI1<6>/XI4<1>/net23 VDD! VDD! PMOS_VTG
+ L=5e-08 W=9e-08 AD=9e-15 AS=1.26e-14 PD=3.8e-07 PS=4.6e-07
mXI1<6>/XI4<0>/MM4 XI1<6>/XI4<0>/net23 XI1<6>/XI4<0>/net5 VDD! VDD! PMOS_VTG
+ L=5e-08 W=9e-08 AD=9e-15 AS=1.26e-14 PD=3.8e-07 PS=4.6e-07
mXI1<6>/XI4<7>/MM6 BL_COL1<7> WL<6> XI1<6>/XI4<7>/net23 GND! NMOS_VTG L=5e-08
+ W=9e-08 AD=1.26e-14 AS=2.445e-14 PD=4.6e-07 PS=7.2e-07
mXI1<6>/XI4<7>/MM5 XI1<6>/XI4<7>/net5 WL<6> _BL_COL1<7> GND! NMOS_VTG L=5e-08
+ W=9e-08 AD=2.445e-14 AS=1.26e-14 PD=7.2e-07 PS=4.6e-07
mXI1<6>/XI4<6>/MM6 BL_COL1<6> WL<6> XI1<6>/XI4<6>/net23 GND! NMOS_VTG L=5e-08
+ W=9e-08 AD=1.26e-14 AS=2.445e-14 PD=4.6e-07 PS=7.2e-07
mXI1<6>/XI4<6>/MM5 XI1<6>/XI4<6>/net5 WL<6> _BL_COL1<6> GND! NMOS_VTG L=5e-08
+ W=9e-08 AD=2.445e-14 AS=1.26e-14 PD=7.2e-07 PS=4.6e-07
mXI1<6>/XI4<5>/MM6 BL_COL1<5> WL<6> XI1<6>/XI4<5>/net23 GND! NMOS_VTG L=5e-08
+ W=9e-08 AD=1.26e-14 AS=2.445e-14 PD=4.6e-07 PS=7.2e-07
mXI1<6>/XI4<5>/MM5 XI1<6>/XI4<5>/net5 WL<6> _BL_COL1<5> GND! NMOS_VTG L=5e-08
+ W=9e-08 AD=2.445e-14 AS=1.26e-14 PD=7.2e-07 PS=4.6e-07
mXI1<6>/XI4<4>/MM6 BL_COL1<4> WL<6> XI1<6>/XI4<4>/net23 GND! NMOS_VTG L=5e-08
+ W=9e-08 AD=1.26e-14 AS=2.445e-14 PD=4.6e-07 PS=7.2e-07
mXI1<6>/XI4<4>/MM5 XI1<6>/XI4<4>/net5 WL<6> _BL_COL1<4> GND! NMOS_VTG L=5e-08
+ W=9e-08 AD=2.445e-14 AS=1.26e-14 PD=7.2e-07 PS=4.6e-07
mXI1<6>/XI4<3>/MM6 BL_COL1<3> WL<6> XI1<6>/XI4<3>/net23 GND! NMOS_VTG L=5e-08
+ W=9e-08 AD=1.26e-14 AS=2.445e-14 PD=4.6e-07 PS=7.2e-07
mXI1<6>/XI4<3>/MM5 XI1<6>/XI4<3>/net5 WL<6> _BL_COL1<3> GND! NMOS_VTG L=5e-08
+ W=9e-08 AD=2.445e-14 AS=1.26e-14 PD=7.2e-07 PS=4.6e-07
mXI1<6>/XI4<2>/MM6 BL_COL1<2> WL<6> XI1<6>/XI4<2>/net23 GND! NMOS_VTG L=5e-08
+ W=9e-08 AD=1.26e-14 AS=2.445e-14 PD=4.6e-07 PS=7.2e-07
mXI1<6>/XI4<2>/MM5 XI1<6>/XI4<2>/net5 WL<6> _BL_COL1<2> GND! NMOS_VTG L=5e-08
+ W=9e-08 AD=2.445e-14 AS=1.26e-14 PD=7.2e-07 PS=4.6e-07
mXI1<6>/XI4<1>/MM6 BL_COL1<1> WL<6> XI1<6>/XI4<1>/net23 GND! NMOS_VTG L=5e-08
+ W=9e-08 AD=1.26e-14 AS=2.445e-14 PD=4.6e-07 PS=7.2e-07
mXI1<6>/XI4<1>/MM5 XI1<6>/XI4<1>/net5 WL<6> _BL_COL1<1> GND! NMOS_VTG L=5e-08
+ W=9e-08 AD=2.445e-14 AS=1.26e-14 PD=7.2e-07 PS=4.6e-07
mXI1<6>/XI4<0>/MM6 BL_COL1<0> WL<6> XI1<6>/XI4<0>/net23 GND! NMOS_VTG L=5e-08
+ W=9e-08 AD=1.26e-14 AS=2.445e-14 PD=4.6e-07 PS=7.2e-07
mXI1<6>/XI4<0>/MM5 XI1<6>/XI4<0>/net5 WL<6> _BL_COL1<0> GND! NMOS_VTG L=5e-08
+ W=9e-08 AD=2.445e-14 AS=1.26e-14 PD=7.2e-07 PS=4.6e-07
mXI0<5>/XI4<7>/MM3 XI0<5>/XI4<7>/net23 XI0<5>/XI4<7>/net5 GND! GND! NMOS_VTG
+ L=5e-08 W=1.2e-07 AD=2.445e-14 AS=1.2e-14 PD=7.2e-07 PS=4.4e-07
mXI0<5>/XI4<0>/MM1 XI0<5>/XI4<0>/net5 XI0<5>/XI4<0>/net23 GND! GND! NMOS_VTG
+ L=5e-08 W=1.2e-07 AD=2.445e-14 AS=1.68e-14 PD=7.2e-07 PS=5.2e-07
mXI1<5>/XI4<7>/MM3 XI1<5>/XI4<7>/net23 XI1<5>/XI4<7>/net5 GND! GND! NMOS_VTG
+ L=5e-08 W=1.2e-07 AD=2.445e-14 AS=1.68e-14 PD=7.2e-07 PS=5.2e-07
mXI1<5>/XI4<0>/MM1 XI1<5>/XI4<0>/net5 XI1<5>/XI4<0>/net23 GND! GND! NMOS_VTG
+ L=5e-08 W=1.2e-07 AD=2.445e-14 AS=1.2e-14 PD=7.2e-07 PS=4.4e-07
mXI0<5>/XI4<7>/MM4 XI0<5>/XI4<7>/net23 XI0<5>/XI4<7>/net5 VDD! VDD! PMOS_VTG
+ L=5e-08 W=9e-08 AD=9e-15 AS=9e-15 PD=3.8e-07 PS=3.8e-07
mXI0<5>/XI4<0>/MM2 XI0<5>/XI4<0>/net5 XI0<5>/XI4<0>/net23 VDD! VDD! PMOS_VTG
+ L=5e-08 W=9e-08 AD=9e-15 AS=1.26e-14 PD=3.8e-07 PS=4.6e-07
mXI1<5>/XI4<7>/MM4 XI1<5>/XI4<7>/net23 XI1<5>/XI4<7>/net5 VDD! VDD! PMOS_VTG
+ L=5e-08 W=9e-08 AD=9e-15 AS=1.26e-14 PD=3.8e-07 PS=4.6e-07
mXI1<5>/XI4<0>/MM2 XI1<5>/XI4<0>/net5 XI1<5>/XI4<0>/net23 VDD! VDD! PMOS_VTG
+ L=5e-08 W=9e-08 AD=9e-15 AS=9e-15 PD=3.8e-07 PS=3.8e-07
mXI0<5>/XI4<7>/MM1 XI0<5>/XI4<7>/net5 XI0<5>/XI4<7>/net23 GND! GND! NMOS_VTG
+ L=5e-08 W=1.2e-07 AD=2.445e-14 AS=1.68e-14 PD=7.2e-07 PS=5.2e-07
mXI0<5>/XI4<6>/MM3 XI0<5>/XI4<6>/net23 XI0<5>/XI4<6>/net5 GND! GND! NMOS_VTG
+ L=5e-08 W=1.2e-07 AD=2.445e-14 AS=1.68e-14 PD=7.2e-07 PS=5.2e-07
mXI0<5>/XI4<6>/MM1 XI0<5>/XI4<6>/net5 XI0<5>/XI4<6>/net23 GND! GND! NMOS_VTG
+ L=5e-08 W=1.2e-07 AD=2.445e-14 AS=1.68e-14 PD=7.2e-07 PS=5.2e-07
mXI0<5>/XI4<5>/MM3 XI0<5>/XI4<5>/net23 XI0<5>/XI4<5>/net5 GND! GND! NMOS_VTG
+ L=5e-08 W=1.2e-07 AD=2.445e-14 AS=1.68e-14 PD=7.2e-07 PS=5.2e-07
mXI0<5>/XI4<5>/MM1 XI0<5>/XI4<5>/net5 XI0<5>/XI4<5>/net23 GND! GND! NMOS_VTG
+ L=5e-08 W=1.2e-07 AD=2.445e-14 AS=1.68e-14 PD=7.2e-07 PS=5.2e-07
mXI0<5>/XI4<4>/MM3 XI0<5>/XI4<4>/net23 XI0<5>/XI4<4>/net5 GND! GND! NMOS_VTG
+ L=5e-08 W=1.2e-07 AD=2.445e-14 AS=1.68e-14 PD=7.2e-07 PS=5.2e-07
mXI0<5>/XI4<4>/MM1 XI0<5>/XI4<4>/net5 XI0<5>/XI4<4>/net23 GND! GND! NMOS_VTG
+ L=5e-08 W=1.2e-07 AD=2.445e-14 AS=1.68e-14 PD=7.2e-07 PS=5.2e-07
mXI0<5>/XI4<3>/MM3 XI0<5>/XI4<3>/net23 XI0<5>/XI4<3>/net5 GND! GND! NMOS_VTG
+ L=5e-08 W=1.2e-07 AD=2.445e-14 AS=1.68e-14 PD=7.2e-07 PS=5.2e-07
mXI0<5>/XI4<3>/MM1 XI0<5>/XI4<3>/net5 XI0<5>/XI4<3>/net23 GND! GND! NMOS_VTG
+ L=5e-08 W=1.2e-07 AD=2.445e-14 AS=1.68e-14 PD=7.2e-07 PS=5.2e-07
mXI0<5>/XI4<2>/MM3 XI0<5>/XI4<2>/net23 XI0<5>/XI4<2>/net5 GND! GND! NMOS_VTG
+ L=5e-08 W=1.2e-07 AD=2.445e-14 AS=1.68e-14 PD=7.2e-07 PS=5.2e-07
mXI0<5>/XI4<2>/MM1 XI0<5>/XI4<2>/net5 XI0<5>/XI4<2>/net23 GND! GND! NMOS_VTG