* File: SRAM_regfile.pex.netlist
* Created: Mon Jan 25 01:41:15 2010
* Program "Calibre xRC"
* Version "v2007.2_34.24"
* 
.subckt SRAM_regfile  WL<11> WL<3> WL<7> WL<9> WL<10> WL<13> WL<14> WL<15>
+ WL<0> WL<1> WL<8> WL<12> WL<2> WL<4> WL<5> WL<6> VDD! BL_COL0<7> _BL_COL0<7>
+ BL_COL0<6> _BL_COL0<6> BL_COL0<5> _BL_COL0<5> BL_COL0<4> _BL_COL0<4> BL_COL0<3>
+ _BL_COL0<3> BL_COL0<2> _BL_COL0<2> BL_COL0<1> _BL_COL0<1> BL_COL0<0>
+ _BL_COL0<0> BL_COL1<7> _BL_COL1<7> BL_COL1<6> _BL_COL1<6> BL_COL1<5>
+ _BL_COL1<5> BL_COL1<4> _BL_COL1<4> BL_COL1<3> _BL_COL1<3> BL_COL1<2>
+ _BL_COL1<2> BL_COL1<1> _BL_COL1<1> BL_COL1<0> _BL_COL1<0> GND!
* 
mXI0<15>/XI4<7>/MM3 X4/X0/X0/X0/noxref_38 X4/X0/X0/X0/noxref_39 GND!
+ X4/X0/X0/noxref_39 NMOS_VTG L=5e-08 W=1.2e-07 AD=2.445e-14 AS=1.2e-14
+ PD=7.2e-07 PS=4.4e-07
mXI0<15>/XI4<7>/MM1 X4/X0/X0/X0/noxref_41 X4/X0/X0/X0/noxref_40 GND!
+ X4/X0/X0/noxref_39 NMOS_VTG L=5e-08 W=1.2e-07 AD=2.445e-14 AS=1.68e-14
+ PD=7.2e-07 PS=5.2e-07
mXI0<15>/XI4<6>/MM3 X4/X0/X0/X0/noxref_42 X4/X0/X0/X0/noxref_43 GND!
+ X4/X0/X0/noxref_39 NMOS_VTG L=5e-08 W=1.2e-07 AD=2.445e-14 AS=1.68e-14
+ PD=7.2e-07 PS=5.2e-07
mXI0<15>/XI4<6>/MM1 X4/X0/X0/X0/noxref_45 X4/X0/X0/X0/noxref_44 GND!
+ X4/X0/X0/noxref_39 NMOS_VTG L=5e-08 W=1.2e-07 AD=2.445e-14 AS=1.2e-14
+ PD=7.2e-07 PS=4.4e-07
mXI0<15>/XI4<7>/MM2 X4/X0/X0/X0/noxref_38 X4/X0/X0/X0/noxref_39 VDD! noxref_52
+ PMOS_VTG L=5e-08 W=9e-08 AD=9e-15 AS=9e-15 PD=3.8e-07 PS=3.8e-07
mXI0<15>/XI4<7>/MM4 X4/X0/X0/X0/noxref_41 X4/X0/X0/X0/noxref_40 VDD! noxref_52
+ PMOS_VTG L=5e-08 W=9e-08 AD=9e-15 AS=1.26e-14 PD=3.8e-07 PS=4.6e-07
mXI0<15>/XI4<6>/MM2 X4/X0/X0/X0/noxref_42 X4/X0/X0/X0/noxref_43 VDD! noxref_52
+ PMOS_VTG L=5e-08 W=9e-08 AD=9e-15 AS=1.26e-14 PD=3.8e-07 PS=4.6e-07
mXI0<15>/XI4<6>/MM4 X4/X0/X0/X0/noxref_45 X4/X0/X0/X0/noxref_44 VDD! noxref_52
+ PMOS_VTG L=5e-08 W=9e-08 AD=9e-15 AS=9e-15 PD=3.8e-07 PS=3.8e-07
mXI0<15>/XI4<5>/MM3 X4/X0/X0/X0/noxref_39 X4/X0/X0/X0/noxref_38 GND!
+ X4/X0/X0/noxref_39 NMOS_VTG L=5e-08 W=1.2e-07 AD=2.445e-14 AS=1.68e-14
+ PD=7.2e-07 PS=5.2e-07
mXI0<15>/XI4<5>/MM1 X4/X0/X0/X0/X8/noxref_26 X4/X0/X0/X0/X8/noxref_27 GND!
+ X4/X0/X0/noxref_39 NMOS_VTG L=5e-08 W=1.2e-07 AD=2.445e-14 AS=1.68e-14
+ PD=7.2e-07 PS=5.2e-07
mXI0<15>/XI4<4>/MM3 X4/X0/X0/X0/X8/noxref_27 X4/X0/X0/X0/X8/noxref_26 GND!
+ X4/X0/X0/noxref_39 NMOS_VTG L=5e-08 W=1.2e-07 AD=2.445e-14 AS=1.68e-14
+ PD=7.2e-07 PS=5.2e-07
mXI0<15>/XI4<4>/MM1 X4/X0/X0/X0/X8/noxref_28 X4/X0/X0/X0/X8/noxref_29 GND!
+ X4/X0/X0/noxref_39 NMOS_VTG L=5e-08 W=1.2e-07 AD=2.445e-14 AS=1.68e-14
+ PD=7.2e-07 PS=5.2e-07
mXI0<15>/XI4<3>/MM3 X4/X0/X0/X0/X8/noxref_29 X4/X0/X0/X0/X8/noxref_28 GND!
+ X4/X0/X0/noxref_39 NMOS_VTG L=5e-08 W=1.2e-07 AD=2.445e-14 AS=1.68e-14
+ PD=7.2e-07 PS=5.2e-07
mXI0<15>/XI4<3>/MM1 X4/X0/X0/X0/X8/noxref_30 X4/X0/X0/X0/X8/noxref_31 GND!
+ X4/X0/X0/noxref_39 NMOS_VTG L=5e-08 W=1.2e-07 AD=2.445e-14 AS=1.68e-14
+ PD=7.2e-07 PS=5.2e-07
mXI0<15>/XI4<2>/MM3 X4/X0/X0/X0/X8/noxref_31 X4/X0/X0/X0/X8/noxref_30 GND!
+ X4/X0/X0/noxref_39 NMOS_VTG L=5e-08 W=1.2e-07 AD=2.445e-14 AS=1.68e-14
+ PD=7.2e-07 PS=5.2e-07
mXI0<15>/XI4<2>/MM1 X4/X0/X0/X0/X8/noxref_32 X4/X0/X0/X0/X8/noxref_33 GND!
+ X4/X0/X0/noxref_39 NMOS_VTG L=5e-08 W=1.2e-07 AD=2.445e-14 AS=1.68e-14
+ PD=7.2e-07 PS=5.2e-07
mXI0<15>/XI4<1>/MM3 X4/X0/X0/X0/X8/noxref_33 X4/X0/X0/X0/X8/noxref_32 GND!
+ X4/X0/X0/noxref_39 NMOS_VTG L=5e-08 W=1.2e-07 AD=2.445e-14 AS=1.68e-14
+ PD=7.2e-07 PS=5.2e-07
mXI0<15>/XI4<1>/MM1 X4/X0/X0/X0/X8/noxref_34 X4/X0/X0/X0/X8/noxref_35 GND!
+ X4/X0/X0/noxref_39 NMOS_VTG L=5e-08 W=1.2e-07 AD=2.445e-14 AS=1.68e-14
+ PD=7.2e-07 PS=5.2e-07
mXI0<15>/XI4<0>/MM3 X4/X0/X0/X0/X8/noxref_35 X4/X0/X0/X0/X8/noxref_34 GND!
+ X4/X0/X0/noxref_39 NMOS_VTG L=5e-08 W=1.2e-07 AD=2.445e-14 AS=1.68e-14
+ PD=7.2e-07 PS=5.2e-07
mXI0<15>/XI4<0>/MM1 X4/X0/X0/X0/X8/noxref_36 X4/X0/X0/X0/X8/noxref_37 GND!
+ X4/X0/X0/noxref_39 NMOS_VTG L=5e-08 W=1.2e-07 AD=2.445e-14 AS=1.68e-14
+ PD=7.2e-07 PS=5.2e-07
mXI0<14>/XI4<7>/MM3 X4/X0/X0/X0/X8/noxref_37 X4/X0/X0/X0/X8/noxref_36 GND!
+ X4/X0/X0/noxref_39 NMOS_VTG L=5e-08 W=1.2e-07 AD=2.445e-14 AS=1.68e-14
+ PD=7.2e-07 PS=5.2e-07
mXI0<14>/XI4<7>/MM1 X4/X0/X0/X0/noxref_40 X4/X0/X0/X0/noxref_41 GND!
+ X4/X0/X0/noxref_39 NMOS_VTG L=5e-08 W=1.2e-07 AD=2.445e-14 AS=1.68e-14
+ PD=7.2e-07 PS=5.2e-07
mXI0<15>/XI4<5>/MM2 X4/X0/X0/X0/noxref_39 X4/X0/X0/X0/noxref_38 VDD! noxref_52
+ PMOS_VTG L=5e-08 W=9e-08 AD=9e-15 AS=1.26e-14 PD=3.8e-07 PS=4.6e-07
mXI0<15>/XI4<5>/MM4 X4/X0/X0/X0/X8/noxref_26 X4/X0/X0/X0/X8/noxref_27 VDD!
+ noxref_52 PMOS_VTG L=5e-08 W=9e-08 AD=9e-15 AS=1.26e-14 PD=3.8e-07 PS=4.6e-07
mXI0<15>/XI4<4>/MM2 X4/X0/X0/X0/X8/noxref_27 X4/X0/X0/X0/X8/noxref_26 VDD!
+ noxref_52 PMOS_VTG L=5e-08 W=9e-08 AD=9e-15 AS=1.26e-14 PD=3.8e-07 PS=4.6e-07
mXI0<15>/XI4<4>/MM4 X4/X0/X0/X0/X8/noxref_28 X4/X0/X0/X0/X8/noxref_29 VDD!
+ noxref_52 PMOS_VTG L=5e-08 W=9e-08 AD=9e-15 AS=1.26e-14 PD=3.8e-07 PS=4.6e-07
mXI0<15>/XI4<3>/MM2 X4/X0/X0/X0/X8/noxref_29 X4/X0/X0/X0/X8/noxref_28 VDD!
+ noxref_52 PMOS_VTG L=5e-08 W=9e-08 AD=9e-15 AS=1.26e-14 PD=3.8e-07 PS=4.6e-07
mXI0<15>/XI4<3>/MM4 X4/X0/X0/X0/X8/noxref_30 X4/X0/X0/X0/X8/noxref_31 VDD!
+ noxref_52 PMOS_VTG L=5e-08 W=9e-08 AD=9e-15 AS=1.26e-14 PD=3.8e-07 PS=4.6e-07
mXI0<15>/XI4<2>/MM2 X4/X0/X0/X0/X8/noxref_31 X4/X0/X0/X0/X8/noxref_30 VDD!
+ noxref_52 PMOS_VTG L=5e-08 W=9e-08 AD=9e-15 AS=1.26e-14 PD=3.8e-07 PS=4.6e-07
mXI0<15>/XI4<2>/MM4 X4/X0/X0/X0/X8/noxref_32 X4/X0/X0/X0/X8/noxref_33 VDD!
+ noxref_52 PMOS_VTG L=5e-08 W=9e-08 AD=9e-15 AS=1.26e-14 PD=3.8e-07 PS=4.6e-07
mXI0<15>/XI4<1>/MM2 X4/X0/X0/X0/X8/noxref_33 X4/X0/X0/X0/X8/noxref_32 VDD!
+ noxref_52 PMOS_VTG L=5e-08 W=9e-08 AD=9e-15 AS=1.26e-14 PD=3.8e-07 PS=4.6e-07
mXI0<15>/XI4<1>/MM4 X4/X0/X0/X0/X8/noxref_34 X4/X0/X0/X0/X8/noxref_35 VDD!
+ noxref_52 PMOS_VTG L=5e-08 W=9e-08 AD=9e-15 AS=1.26e-14 PD=3.8e-07 PS=4.6e-07
mXI0<15>/XI4<0>/MM2 X4/X0/X0/X0/X8/noxref_35 X4/X0/X0/X0/X8/noxref_34 VDD!
+ noxref_52 PMOS_VTG L=5e-08 W=9e-08 AD=9e-15 AS=1.26e-14 PD=3.8e-07 PS=4.6e-07
mXI0<15>/XI4<0>/MM4 X4/X0/X0/X0/X8/noxref_36 X4/X0/X0/X0/X8/noxref_37 VDD!
+ noxref_52 PMOS_VTG L=5e-08 W=9e-08 AD=9e-15 AS=1.26e-14 PD=3.8e-07 PS=4.6e-07
mXI0<14>/XI4<7>/MM2 X4/X0/X0/X0/X8/noxref_37 X4/X0/X0/X0/X8/noxref_36 VDD!
+ noxref_52 PMOS_VTG L=5e-08 W=9e-08 AD=9e-15 AS=1.26e-14 PD=3.8e-07 PS=4.6e-07
mXI0<14>/XI4<7>/MM4 X4/X0/X0/X0/noxref_40 X4/X0/X0/X0/noxref_41 VDD! noxref_52
+ PMOS_VTG L=5e-08 W=9e-08 AD=9e-15 AS=1.26e-14 PD=3.8e-07 PS=4.6e-07
mXI0<7>/XI4<7>/MM6 BL_COL0<7> WL<7> X4/X0/X0/X0/noxref_38 X4/X0/X0/noxref_39
+ NMOS_VTG L=5e-08 W=9e-08 AD=1.26e-14 AS=2.445e-14 PD=4.6e-07 PS=7.2e-07
mXI0<7>/XI4<7>/MM5 X4/X0/X0/X0/noxref_39 WL<7> _BL_COL0<7> X4/X0/X0/noxref_39
+ NMOS_VTG L=5e-08 W=9e-08 AD=2.445e-14 AS=1.26e-14 PD=7.2e-07 PS=4.6e-07
mXI0<7>/XI4<6>/MM6 BL_COL0<6> WL<7> X4/X0/X0/X0/X8/noxref_26 X4/X0/X0/noxref_39
+ NMOS_VTG L=5e-08 W=9e-08 AD=1.26e-14 AS=2.445e-14 PD=4.6e-07 PS=7.2e-07
mXI0<7>/XI4<6>/MM5 X4/X0/X0/X0/X8/noxref_27 WL<7> _BL_COL0<6>
+ X4/X0/X0/noxref_39 NMOS_VTG L=5e-08 W=9e-08 AD=2.445e-14 AS=1.26e-14 PD=7.2e-07
+ PS=4.6e-07
mXI0<7>/XI4<5>/MM6 BL_COL0<5> WL<7> X4/X0/X0/X0/X8/noxref_28 X4/X0/X0/noxref_39
+ NMOS_VTG L=5e-08 W=9e-08 AD=1.26e-14 AS=2.445e-14 PD=4.6e-07 PS=7.2e-07
mXI0<7>/XI4<5>/MM5 X4/X0/X0/X0/X8/noxref_29 WL<7> _BL_COL0<5>
+ X4/X0/X0/noxref_39 NMOS_VTG L=5e-08 W=9e-08 AD=2.445e-14 AS=1.26e-14 PD=7.2e-07
+ PS=4.6e-07
mXI0<7>/XI4<4>/MM6 BL_COL0<4> WL<7> X4/X0/X0/X0/X8/noxref_30 X4/X0/X0/noxref_39
+ NMOS_VTG L=5e-08 W=9e-08 AD=1.26e-14 AS=2.445e-14 PD=4.6e-07 PS=7.2e-07
mXI0<7>/XI4<4>/MM5 X4/X0/X0/X0/X8/noxref_31 WL<7> _BL_COL0<4>
+ X4/X0/X0/noxref_39 NMOS_VTG L=5e-08 W=9e-08 AD=2.445e-14 AS=1.26e-14 PD=7.2e-07
+ PS=4.6e-07
mXI0<7>/XI4<3>/MM6 BL_COL0<3> WL<7> X4/X0/X0/X0/X8/noxref_32 X4/X0/X0/noxref_39
+ NMOS_VTG L=5e-08 W=9e-08 AD=1.26e-14 AS=2.445e-14 PD=4.6e-07 PS=7.2e-07
mXI0<7>/XI4<3>/MM5 X4/X0/X0/X0/X8/noxref_33 WL<7> _BL_COL0<3>
+ X4/X0/X0/noxref_39 NMOS_VTG L=5e-08 W=9e-08 AD=2.445e-14 AS=1.26e-14 PD=7.2e-07
+ PS=4.6e-07
mXI0<7>/XI4<2>/MM6 BL_COL0<2> WL<7> X4/X0/X0/X0/X8/noxref_34 X4/X0/X0/noxref_39
+ NMOS_VTG L=5e-08 W=9e-08 AD=1.26e-14 AS=2.445e-14 PD=4.6e-07 PS=7.2e-07
mXI0<7>/XI4<2>/MM5 X4/X0/X0/X0/X8/noxref_35 WL<7> _BL_COL0<2>
+ X4/X0/X0/noxref_39 NMOS_VTG L=5e-08 W=9e-08 AD=2.445e-14 AS=1.26e-14 PD=7.2e-07
+ PS=4.6e-07
mXI0<7>/XI4<1>/MM6 BL_COL0<1> WL<7> X4/X0/X0/X0/X8/noxref_36 X4/X0/X0/noxref_39
+ NMOS_VTG L=5e-08 W=9e-08 AD=1.26e-14 AS=2.445e-14 PD=4.6e-07 PS=7.2e-07
mXI0<7>/XI4<1>/MM5 X4/X0/X0/X0/X8/noxref_37 WL<7> _BL_COL0<1>
+ X4/X0/X0/noxref_39 NMOS_VTG L=5e-08 W=9e-08 AD=2.445e-14 AS=1.26e-14 PD=7.2e-07
+ PS=4.6e-07
mXI0<7>/XI4<0>/MM6 BL_COL0<0> WL<7> X4/X0/X0/X0/noxref_40 X4/X0/X0/noxref_39
+ NMOS_VTG L=5e-08 W=9e-08 AD=1.26e-14 AS=2.445e-14 PD=4.6e-07 PS=7.2e-07
mXI0<7>/XI4<0>/MM5 X4/X0/X0/X0/noxref_41 WL<7> _BL_COL0<0> X4/X0/X0/noxref_39
+ NMOS_VTG L=5e-08 W=9e-08 AD=2.445e-14 AS=1.26e-14 PD=7.2e-07 PS=4.6e-07
mXI0<14>/XI4<6>/MM3 X4/X0/X0/X0/noxref_43 X4/X0/X0/X0/noxref_42 GND!
+ X4/X0/X0/noxref_39 NMOS_VTG L=5e-08 W=1.2e-07 AD=2.445e-14 AS=1.68e-14
+ PD=7.2e-07 PS=5.2e-07
mXI0<14>/XI4<6>/MM1 X4/X0/X0/X0/X9/noxref_26 X4/X0/X0/X0/X9/noxref_27 GND!
+ X4/X0/X0/noxref_39 NMOS_VTG L=5e-08 W=1.2e-07 AD=2.445e-14 AS=1.68e-14
+ PD=7.2e-07 PS=5.2e-07
mXI0<14>/XI4<5>/MM3 X4/X0/X0/X0/X9/noxref_27 X4/X0/X0/X0/X9/noxref_26 GND!
+ X4/X0/X0/noxref_39 NMOS_VTG L=5e-08 W=1.2e-07 AD=2.445e-14 AS=1.68e-14
+ PD=7.2e-07 PS=5.2e-07
mXI0<14>/XI4<5>/MM1 X4/X0/X0/X0/X9/noxref_28 X4/X0/X0/X0/X9/noxref_29 GND!
+ X4/X0/X0/noxref_39 NMOS_VTG L=5e-08 W=1.2e-07 AD=2.445e-14 AS=1.68e-14
+ PD=7.2e-07 PS=5.2e-07
mXI0<14>/XI4<4>/MM3 X4/X0/X0/X0/X9/noxref_29 X4/X0/X0/X0/X9/noxref_28 GND!
+ X4/X0/X0/noxref_39 NMOS_VTG L=5e-08 W=1.2e-07 AD=2.445e-14 AS=1.68e-14
+ PD=7.2e-07 PS=5.2e-07
mXI0<14>/XI4<4>/MM1 X4/X0/X0/X0/X9/noxref_30 X4/X0/X0/X0/X9/noxref_31 GND!
+ X4/X0/X0/noxref_39 NMOS_VTG L=5e-08 W=1.2e-07 AD=2.445e-14 AS=1.68e-14
+ PD=7.2e-07 PS=5.2e-07
mXI0<14>/XI4<3>/MM3 X4/X0/X0/X0/X9/noxref_31 X4/X0/X0/X0/X9/noxref_30 GND!
+ X4/X0/X0/noxref_39 NMOS_VTG L=5e-08 W=1.2e-07 AD=2.445e-14 AS=1.68e-14
+ PD=7.2e-07 PS=5.2e-07
mXI0<14>/XI4<3>/MM1 X4/X0/X0/X0/X9/noxref_32 X4/X0/X0/X0/X9/noxref_33 GND!
+ X4/X0/X0/noxref_39 NMOS_VTG L=5e-08 W=1.2e-07 AD=2.445e-14 AS=1.68e-14
+ PD=7.2e-07 PS=5.2e-07
mXI0<14>/XI4<2>/MM3 X4/X0/X0/X0/X9/noxref_33 X4/X0/X0/X0/X9/noxref_32 GND!
+ X4/X0/X0/noxref_39 NMOS_VTG L=5e-08 W=1.2e-07 AD=2.445e-14 AS=1.68e-14
+ PD=7.2e-07 PS=5.2e-07
mXI0<14>/XI4<2>/MM1 X4/X0/X0/X0/X9/noxref_34 X4/X0/X0/X0/X9/noxref_35 GND!
+ X4/X0/X0/noxref_39 NMOS_VTG L=5e-08 W=1.2e-07 AD=2.445e-14 AS=1.68e-14
+ PD=7.2e-07 PS=5.2e-07
mXI0<14>/XI4<1>/MM3 X4/X0/X0/X0/X9/noxref_35 X4/X0/X0/X0/X9/noxref_34 GND!
+ X4/X0/X0/noxref_39 NMOS_VTG L=5e-08 W=1.2e-07 AD=2.445e-14 AS=1.68e-14
+ PD=7.2e-07 PS=5.2e-07
mXI0<14>/XI4<1>/MM1 X4/X0/X0/X0/X9/noxref_36 X4/X0/X0/X0/X9/noxref_37 GND!
+ X4/X0/X0/noxref_39 NMOS_VTG L=5e-08 W=1.2e-07 AD=2.445e-14 AS=1.68e-14
+ PD=7.2e-07 PS=5.2e-07
mXI0<14>/XI4<0>/MM3 X4/X0/X0/X0/X9/noxref_37 X4/X0/X0/X0/X9/noxref_36 GND!
+ X4/X0/X0/noxref_39 NMOS_VTG L=5e-08 W=1.2e-07 AD=2.445e-14 AS=1.68e-14
+ PD=7.2e-07 PS=5.2e-07
mXI0<14>/XI4<0>/MM1 X4/X0/X0/X0/noxref_44 X4/X0/X0/X0/noxref_45 GND!
+ X4/X0/X0/noxref_39 NMOS_VTG L=5e-08 W=1.2e-07 AD=2.445e-14 AS=1.68e-14
+ PD=7.2e-07 PS=5.2e-07
mXI0<14>/XI4<6>/MM2 X4/X0/X0/X0/noxref_43 X4/X0/X0/X0/noxref_42 VDD! noxref_52
+ PMOS_VTG L=5e-08 W=9e-08 AD=9e-15 AS=1.26e-14 PD=3.8e-07 PS=4.6e-07
mXI0<14>/XI4<6>/MM4 X4/X0/X0/X0/X9/noxref_26 X4/X0/X0/X0/X9/noxref_27 VDD!
+ noxref_52 PMOS_VTG L=5e-08 W=9e-08 AD=9e-15 AS=1.26e-14 PD=3.8e-07 PS=4.6e-07
mXI0<14>/XI4<5>/MM2 X4/X0/X0/X0/X9/noxref_27 X4/X0/X0/X0/X9/noxref_26 VDD!
+ noxref_52 PMOS_VTG L=5e-08 W=9e-08 AD=9e-15 AS=1.26e-14 PD=3.8e-07 PS=4.6e-07
mXI0<14>/XI4<5>/MM4 X4/X0/X0/X0/X9/noxref_28 X4/X0/X0/X0/X9/noxref_29 VDD!
+ noxref_52 PMOS_VTG L=5e-08 W=9e-08 AD=9e-15 AS=1.26e-14 PD=3.8e-07 PS=4.6e-07
mXI0<14>/XI4<4>/MM2 X4/X0/X0/X0/X9/noxref_29 X4/X0/X0/X0/X9/noxref_28 VDD!
+ noxref_52 PMOS_VTG L=5e-08 W=9e-08 AD=9e-15 AS=1.26e-14 PD=3.8e-07 PS=4.6e-07
mXI0<14>/XI4<4>/MM4 X4/X0/X0/X0/X9/noxref_30 X4/X0/X0/X0/X9/noxref_31 VDD!
+ noxref_52 PMOS_VTG L=5e-08 W=9e-08 AD=9e-15 AS=1.26e-14 PD=3.8e-07 PS=4.6e-07
mXI0<14>/XI4<3>/MM2 X4/X0/X0/X0/X9/noxref_31 X4/X0/X0/X0/X9/noxref_30 VDD!
+ noxref_52 PMOS_VTG L=5e-08 W=9e-08 AD=9e-15 AS=1.26e-14 PD=3.8e-07 PS=4.6e-07
mXI0<14>/XI4<3>/MM4 X4/X0/X0/X0/X9/noxref_32 X4/X0/X0/X0/X9/noxref_33 VDD!
+ noxref_52 PMOS_VTG L=5e-08 W=9e-08 AD=9e-15 AS=1.26e-14 PD=3.8e-07 PS=4.6e-07
mXI0<14>/XI4<2>/MM2 X4/X0/X0/X0/X9/noxref_33 X4/X0/X0/X0/X9/noxref_32 VDD!
+ noxref_52 PMOS_VTG L=5e-08 W=9e-08 AD=9e-15 AS=1.26e-14 PD=3.8e-07 PS=4.6e-07
mXI0<14>/XI4<2>/MM4 X4/X0/X0/X0/X9/noxref_34 X4/X0/X0/X0/X9/noxref_35 VDD!
+ noxref_52 PMOS_VTG L=5e-08 W=9e-08 AD=9e-15 AS=1.26e-14 PD=3.8e-07 PS=4.6e-07
mXI0<14>/XI4<1>/MM2 X4/X0/X0/X0/X9/noxref_35 X4/X0/X0/X0/X9/noxref_34 VDD!
+ noxref_52 PMOS_VTG L=5e-08 W=9e-08 AD=9e-15 AS=1.26e-14 PD=3.8e-07 PS=4.6e-07
mXI0<14>/XI4<1>/MM4 X4/X0/X0/X0/X9/noxref_36 X4/X0/X0/X0/X9/noxref_37 VDD!
+ noxref_52 PMOS_VTG L=5e-08 W=9e-08 AD=9e-15 AS=1.26e-14 PD=3.8e-07 PS=4.6e-07
mXI0<14>/XI4<0>/MM2 X4/X0/X0/X0/X9/noxref_37 X4/X0/X0/X0/X9/noxref_36 VDD!
+ noxref_52 PMOS_VTG L=5e-08 W=9e-08 AD=9e-15 AS=1.26e-14 PD=3.8e-07 PS=4.6e-07
mXI0<14>/XI4<0>/MM4 X4/X0/X0/X0/noxref_44 X4/X0/X0/X0/noxref_45 VDD! noxref_52
+ PMOS_VTG L=5e-08 W=9e-08 AD=9e-15 AS=1.26e-14 PD=3.8e-07 PS=4.6e-07
mXI1<7>/XI4<7>/MM6 BL_COL1<7> WL<7> X4/X0/X0/X0/noxref_42 X4/X0/X0/noxref_39
+ NMOS_VTG L=5e-08 W=9e-08 AD=1.26e-14 AS=2.445e-14 PD=4.6e-07 PS=7.2e-07
mXI1<7>/XI4<7>/MM5 X4/X0/X0/X0/noxref_43 WL<7> _BL_COL1<7> X4/X0/X0/noxref_39
+ NMOS_VTG L=5e-08 W=9e-08 AD=2.445e-14 AS=1.26e-14 PD=7.2e-07 PS=4.6e-07
mXI1<7>/XI4<6>/MM6 BL_COL1<6> WL<7> X4/X0/X0/X0/X9/noxref_26 X4/X0/X0/noxref_39
+ NMOS_VTG L=5e-08 W=9e-08 AD=1.26e-14 AS=2.445e-14 PD=4.6e-07 PS=7.2e-07
mXI1<7>/XI4<6>/MM5 X4/X0/X0/X0/X9/noxref_27 WL<7> _BL_COL1<6>
+ X4/X0/X0/noxref_39 NMOS_VTG L=5e-08 W=9e-08 AD=2.445e-14 AS=1.26e-14 PD=7.2e-07
+ PS=4.6e-07
mXI1<7>/XI4<5>/MM6 BL_COL1<5> WL<7> X4/X0/X0/X0/X9/noxref_28 X4/X0/X0/noxref_39
+ NMOS_VTG L=5e-08 W=9e-08 AD=1.26e-14 AS=2.445e-14 PD=4.6e-07 PS=7.2e-07
mXI1<7>/XI4<5>/MM5 X4/X0/X0/X0/X9/noxref_29 WL<7> _BL_COL1<5>
+ X4/X0/X0/noxref_39 NMOS_VTG L=5e-08 W=9e-08 AD=2.445e-14 AS=1.26e-14 PD=7.2e-07
+ PS=4.6e-07
mXI1<7>/XI4<4>/MM6 BL_COL1<4> WL<7> X4/X0/X0/X0/X9/noxref_30 X4/X0/X0/noxref_39
+ NMOS_VTG L=5e-08 W=9e-08 AD=1.26e-14 AS=2.445e-14 PD=4.6e-07 PS=7.2e-07
mXI1<7>/XI4<4>/MM5 X4/X0/X0/X0/X9/noxref_31 WL<7> _BL_COL1<4>
+ X4/X0/X0/noxref_39 NMOS_VTG L=5e-08 W=9e-08 AD=2.445e-14 AS=1.26e-14 PD=7.2e-07
+ PS=4.6e-07
mXI1<7>/XI4<3>/MM6 BL_COL1<3> WL<7> X4/X0/X0/X0/X9/noxref_32 X4/X0/X0/noxref_39
+ NMOS_VTG L=5e-08 W=9e-08 AD=1.26e-14 AS=2.445e-14 PD=4.6e-07 PS=7.2e-07
mXI1<7>/XI4<3>/MM5 X4/X0/X0/X0/X9/noxref_33 WL<7> _BL_COL1<3>
+ X4/X0/X0/noxref_39 NMOS_VTG L=5e-08 W=9e-08 AD=2.445e-14 AS=1.26e-14 PD=7.2e-07
+ PS=4.6e-07
mXI1<7>/XI4<2>/MM6 BL_COL1<2> WL<7> X4/X0/X0/X0/X9/noxref_34 X4/X0/X0/noxref_39
+ NMOS_VTG L=5e-08 W=9e-08 AD=1.26e-14 AS=2.445e-14 PD=4.6e-07 PS=7.2e-07
mXI1<7>/XI4<2>/MM5 X4/X0/X0/X0/X9/noxref_35 WL<7> _BL_COL1<2>
+ X4/X0/X0/noxref_39 NMOS_VTG L=5e-08 W=9e-08 AD=2.445e-14 AS=1.26e-14 PD=7.2e-07
+ PS=4.6e-07
mXI1<7>/XI4<1>/MM6 BL_COL1<1> WL<7> X4/X0/X0/X0/X9/noxref_36 X4/X0/X0/noxref_39
+ NMOS_VTG L=5e-08 W=9e-08 AD=1.26e-14 AS=2.445e-14 PD=4.6e-07 PS=7.2e-07
mXI1<7>/XI4<1>/MM5 X4/X0/X0/X0/X9/noxref_37 WL<7> _BL_COL1<1>
+ X4/X0/X0/noxref_39 NMOS_VTG L=5e-08 W=9e-08 AD=2.445e-14 AS=1.26e-14 PD=7.2e-07
+ PS=4.6e-07
mXI1<7>/XI4<0>/MM6 BL_COL1<0> WL<7> X4/X0/X0/X0/noxref_44 X4/X0/X0/noxref_39
+ NMOS_VTG L=5e-08 W=9e-08 AD=1.26e-14 AS=2.445e-14 PD=4.6e-07 PS=7.2e-07
mXI1<7>/XI4<0>/MM5 X4/X0/X0/X0/noxref_45 WL<7> _BL_COL1<0> X4/X0/X0/noxref_39
+ NMOS_VTG L=5e-08 W=9e-08 AD=2.445e-14 AS=1.26e-14 PD=7.2e-07 PS=4.6e-07
mXI0<13>/XI4<7>/MM3 X4/X0/X0/X1/noxref_38 X4/X0/X0/X1/noxref_39 GND!
+ X4/X0/X0/noxref_39 NMOS_VTG L=5e-08 W=1.2e-07 AD=2.445e-14 AS=1.2e-14
+ PD=7.2e-07 PS=4.4e-07
mXI0<13>/XI4<7>/MM1 X4/X0/X0/X1/noxref_41 X4/X0/X0/X1/noxref_40 GND!
+ X4/X0/X0/noxref_39 NMOS_VTG L=5e-08 W=1.2e-07 AD=2.445e-14 AS=1.68e-14
+ PD=7.2e-07 PS=5.2e-07
mXI0<13>/XI4<6>/MM3 X4/X0/X0/X1/noxref_42 X4/X0/X0/X1/noxref_43 GND!
+ X4/X0/X0/noxref_39 NMOS_VTG L=5e-08 W=1.2e-07 AD=2.445e-14 AS=1.68e-14
+ PD=7.2e-07 PS=5.2e-07
mXI0<13>/XI4<6>/MM1 X4/X0/X0/X1/noxref_45 X4/X0/X0/X1/noxref_44 GND!
+ X4/X0/X0/noxref_39 NMOS_VTG L=5e-08 W=1.2e-07 AD=2.445e-14 AS=1.2e-14
+ PD=7.2e-07 PS=4.4e-07
mXI0<13>/XI4<7>/MM2 X4/X0/X0/X1/noxref_38 X4/X0/X0/X1/noxref_39 VDD!
+ X4/X0/noxref_41 PMOS_VTG L=5e-08 W=9e-08 AD=9e-15 AS=9e-15 PD=3.8e-07
+ PS=3.8e-07
mXI0<13>/XI4<7>/MM4 X4/X0/X0/X1/noxref_41 X4/X0/X0/X1/noxref_40 VDD!
+ X4/X0/noxref_41 PMOS_VTG L=5e-08 W=9e-08 AD=9e-15 AS=1.26e-14 PD=3.8e-07
+ PS=4.6e-07
mXI0<13>/XI4<6>/MM2 X4/X0/X0/X1/noxref_42 X4/X0/X0/X1/noxref_43 VDD!
+ X4/X0/noxref_41 PMOS_VTG L=5e-08 W=9e-08 AD=9e-15 AS=1.26e-14 PD=3.8e-07
+ PS=4.6e-07
mXI0<13>/XI4<6>/MM4 X4/X0/X0/X1/noxref_45 X4/X0/X0/X1/noxref_44 VDD!
+ X4/X0/noxref_41 PMOS_VTG L=5e-08 W=9e-08 AD=9e-15 AS=9e-15 PD=3.8e-07
+ PS=3.8e-07
mXI0<13>/XI4<5>/MM3 X4/X0/X0/X1/noxref_39 X4/X0/X0/X1/noxref_38 GND!
+ X4/X0/X0/noxref_39 NMOS_VTG L=5e-08 W=1.2e-07 AD=2.445e-14 AS=1.68e-14
+ PD=7.2e-07 PS=5.2e-07
mXI0<13>/XI4<5>/MM1 X4/X0/X0/X1/X8/noxref_26 X4/X0/X0/X1/X8/noxref_27 GND!
+ X4/X0/X0/noxref_39 NMOS_VTG L=5e-08 W=1.2e-07 AD=2.445e-14 AS=1.68e-14
+ PD=7.2e-07 PS=5.2e-07
mXI0<13>/XI4<4>/MM3 X4/X0/X0/X1/X8/noxref_27 X4/X0/X0/X1/X8/noxref_26 GND!
+ X4/X0/X0/noxref_39 NMOS_VTG L=5e-08 W=1.2e-07 AD=2.445e-14 AS=1.68e-14
+ PD=7.2e-07 PS=5.2e-07
mXI0<13>/XI4<4>/MM1 X4/X0/X0/X1/X8/noxref_28 X4/X0/X0/X1/X8/noxref_29 GND!
+ X4/X0/X0/noxref_39 NMOS_VTG L=5e-08 W=1.2e-07 AD=2.445e-14 AS=1.68e-14
+ PD=7.2e-07 PS=5.2e-07
mXI0<13>/XI4<3>/MM3 X4/X0/X0/X1/X8/noxref_29 X4/X0/X0/X1/X8/noxref_28 GND!
+ X4/X0/X0/noxref_39 NMOS_VTG L=5e-08 W=1.2e-07 AD=2.445e-14 AS=1.68e-14
+ PD=7.2e-07 PS=5.2e-07
mXI0<13>/XI4<3>/MM1 X4/X0/X0/X1/X8/noxref_30 X4/X0/X0/X1/X8/noxref_31 GND!
+ X4/X0/X0/noxref_39 NMOS_VTG L=5e-08 W=1.2e-07 AD=2.445e-14 AS=1.68e-14
+ PD=7.2e-07 PS=5.2e-07
mXI0<13>/XI4<2>/MM3 X4/X0/X0/X1/X8/noxref_31 X4/X0/X0/X1/X8/noxref_30 GND!
+ X4/X0/X0/noxref_39 NMOS_VTG L=5e-08 W=1.2e-07 AD=2.445e-14 AS=1.68e-14
+ PD=7.2e-07 PS=5.2e-07
mXI0<13>/XI4<2>/MM1 X4/X0/X0/X1/X8/noxref_32 X4/X0/X0/X1/X8/noxref_33 GND!
+ X4/X0/X0/noxref_39 NMOS_VTG L=5e-08 W=1.2e-07 AD=2.445e-14 AS=1.68e-14
+ PD=7.2e-07 PS=5.2e-07
mXI0<13>/XI4<1>/MM3 X4/X0/X0/X1/X8/noxref_33 X4/X0/X0/X1/X8/noxref_32 GND!
+ X4/X0/X0/noxref_39 NMOS_VTG L=5e-08 W=1.2e-07 AD=2.445e-14 AS=1.68e-14
+ PD=7.2e-07 PS=5.2e-07
mXI0<13>/XI4<1>/MM1 X4/X0/X0/X1/X8/noxref_34 X4/X0/X0/X1/X8/noxref_35 GND!
+ X4/X0/X0/noxref_39 NMOS_VTG L=5e-08 W=1.2e-07 AD=2.445e-14 AS=1.68e-14
+ PD=7.2e-07 PS=5.2e-07
mXI0<13>/XI4<0>/MM3 X4/X0/X0/X1/X8/noxref_35 X4/X0/X0/X1/X8/noxref_34 GND!
+ X4/X0/X0/noxref_39 NMOS_VTG L=5e-08 W=1.2e-07 AD=2.445e-14 AS=1.68e-14
+ PD=7.2e-07 PS=5.2e-07
mXI0<13>/XI4<0>/MM1 X4/X0/X0/X1/X8/noxref_36 X4/X0/X0/X1/X8/noxref_37 GND!
+ X4/X0/X0/noxref_39 NMOS_VTG L=5e-08 W=1.2e-07 AD=2.445e-14 AS=1.68e-14
+ PD=7.2e-07 PS=5.2e-07
mXI0<12>/XI4<7>/MM3 X4/X0/X0/X1/X8/noxref_37 X4/X0/X0/X1/X8/noxref_36 GND!
+ X4/X0/X0/noxref_39 NMOS_VTG L=5e-08 W=1.2e-07 AD=2.445e-14 AS=1.68e-14
+ PD=7.2e-07 PS=5.2e-07
mXI0<12>/XI4<7>/MM1 X4/X0/X0/X1/noxref_40 X4/X0/X0/X1/noxref_41 GND!
+ X4/X0/X0/noxref_39 NMOS_VTG L=5e-08 W=1.2e-07 AD=2.445e-14 AS=1.68e-14
+ PD=7.2e-07 PS=5.2e-07
mXI0<13>/XI4<5>/MM2 X4/X0/X0/X1/noxref_39 X4/X0/X0/X1/noxref_38 VDD!
+ X4/X0/noxref_41 PMOS_VTG L=5e-08 W=9e-08 AD=9e-15 AS=1.26e-14 PD=3.8e-07
+ PS=4.6e-07
mXI0<13>/XI4<5>/MM4 X4/X0/X0/X1/X8/noxref_26 X4/X0/X0/X1/X8/noxref_27 VDD!
+ X4/X0/noxref_41 PMOS_VTG L=5e-08 W=9e-08 AD=9e-15 AS=1.26e-14 PD=3.8e-07
+ PS=4.6e-07
mXI0<13>/XI4<4>/MM2 X4/X0/X0/X1/X8/noxref_27 X4/X0/X0/X1/X8/noxref_26 VDD!
+ X4/X0/noxref_41 PMOS_VTG L=5e-08 W=9e-08 AD=9e-15 AS=1.26e-14 PD=3.8e-07
+ PS=4.6e-07
mXI0<13>/XI4<4>/MM4 X4/X0/X0/X1/X8/noxref_28 X4/X0/X0/X1/X8/noxref_29 VDD!
+ X4/X0/noxref_41 PMOS_VTG L=5e-08 W=9e-08 AD=9e-15 AS=1.26e-14 PD=3.8e-07
+ PS=4.6e-07
mXI0<13>/XI4<3>/MM2 X4/X0/X0/X1/X8/noxref_29 X4/X0/X0/X1/X8/noxref_28 VDD!
+ X4/X0/noxref_41 PMOS_VTG L=5e-08 W=9e-08 AD=9e-15 AS=1.26e-14 PD=3.8e-07
+ PS=4.6e-07
mXI0<13>/XI4<3>/MM4 X4/X0/X0/X1/X8/noxref_30 X4/X0/X0/X1/X8/noxref_31 VDD!
+ X4/X0/noxref_41 PMOS_VTG L=5e-08 W=9e-08 AD=9e-15 AS=1.26e-14 PD=3.8e-07
+ PS=4.6e-07
mXI0<13>/XI4<2>/MM2 X4/X0/X0/X1/X8/noxref_31 X4/X0/X0/X1/X8/noxref_30 VDD!
+ X4/X0/noxref_41 PMOS_VTG L=5e-08 W=9e-08 AD=9e-15 AS=1.26e-14 PD=3.8e-07
+ PS=4.6e-07
mXI0<13>/XI4<2>/MM4 X4/X0/X0/X1/X8/noxref_32 X4/X0/X0/X1/X8/noxref_33 VDD!
+ X4/X0/noxref_41 PMOS_VTG L=5e-08 W=9e-08 AD=9e-15 AS=1.26e-14 PD=3.8e-07
+ PS=4.6e-07
mXI0<13>/XI4<1>/MM2 X4/X0/X0/X1/X8/noxref_33 X4/X0/X0/X1/X8/noxref_32 VDD!
+ X4/X0/noxref_41 PMOS_VTG L=5e-08 W=9e-08 AD=9e-15 AS=1.26e-14 PD=3.8e-07
+ PS=4.6e-07
mXI0<13>/XI4<1>/MM4 X4/X0/X0/X1/X8/noxref_34 X4/X0/X0/X1/X8/noxref_35 VDD!
+ X4/X0/noxref_41 PMOS_VTG L=5e-08 W=9e-08 AD=9e-15 AS=1.26e-14 PD=3.8e-07
+ PS=4.6e-07
mXI0<13>/XI4<0>/MM2 X4/X0/X0/X1/X8/noxref_35 X4/X0/X0/X1/X8/noxref_34 VDD!
+ X4/X0/noxref_41 PMOS_VTG L=5e-08 W=9e-08 AD=9e-15 AS=1.26e-14 PD=3.8e-07
+ PS=4.6e-07
mXI0<13>/XI4<0>/MM4 X4/X0/X0/X1/X8/noxref_36 X4/X0/X0/X1/X8/noxref_37 VDD!
+ X4/X0/noxref_41 PMOS_VTG L=5e-08 W=9e-08 AD=9e-15 AS=1.26e-14 PD=3.8e-07
+ PS=4.6e-07
mXI0<12>/XI4<7>/MM2 X4/X0/X0/X1/X8/noxref_37 X4/X0/X0/X1/X8/noxref_36 VDD!
+ X4/X0/noxref_41 PMOS_VTG L=5e-08 W=9e-08 AD=9e-15 AS=1.26e-14 PD=3.8e-07
+ PS=4.6e-07
mXI0<12>/XI4<7>/MM4 X4/X0/X0/X1/noxref_40 X4/X0/X0/X1/noxref_41 VDD!
+ X4/X0/noxref_41 PMOS_VTG L=5e-08 W=9e-08 AD=9e-15 AS=1.26e-14 PD=3.8e-07
+ PS=4.6e-07
mXI0<6>/XI4<7>/MM6 BL_COL0<7> WL<6> X4/X0/X0/X1/noxref_38 X4/X0/X0/noxref_39
+ NMOS_VTG L=5e-08 W=9e-08 AD=1.26e-14 AS=2.445e-14 PD=4.6e-07 PS=7.2e-07
mXI0<6>/XI4<7>/MM5 X4/X0/X0/X1/noxref_39 WL<6> _BL_COL0<7> X4/X0/X0/noxref_39
+ NMOS_VTG L=5e-08 W=9e-08 AD=2.445e-14 AS=1.26e-14 PD=7.2e-07 PS=4.6e-07
mXI0<6>/XI4<6>/MM6 BL_COL0<6> WL<6> X4/X0/X0/X1/X8/noxref_26 X4/X0/X0/noxref_39
+ NMOS_VTG L=5e-08 W=9e-08 AD=1.26e-14 AS=2.445e-14 PD=4.6e-07 PS=7.2e-07
mXI0<6>/XI4<6>/MM5 X4/X0/X0/X1/X8/noxref_27 WL<6> _BL_COL0<6>
+ X4/X0/X0/noxref_39 NMOS_VTG L=5e-08 W=9e-08 AD=2.445e-14 AS=1.26e-14 PD=7.2e-07
+ PS=4.6e-07
mXI0<6>/XI4<5>/MM6 BL_COL0<5> WL<6> X4/X0/X0/X1/X8/noxref_28 X4/X0/X0/noxref_39
+ NMOS_VTG L=5e-08 W=9e-08 AD=1.26e-14 AS=2.445e-14 PD=4.6e-07 PS=7.2e-07
mXI0<6>/XI4<5>/MM5 X4/X0/X0/X1/X8/noxref_29 WL<6> _BL_COL0<5>
+ X4/X0/X0/noxref_39 NMOS_VTG L=5e-08 W=9e-08 AD=2.445e-14 AS=1.26e-14 PD=7.2e-07
+ PS=4.6e-07
mXI0<6>/XI4<4>/MM6 BL_COL0<4> WL<6> X4/X0/X0/X1/X8/noxref_30 X4/X0/X0/noxref_39
+ NMOS_VTG L=5e-08 W=9e-08 AD=1.26e-14 AS=2.445e-14 PD=4.6e-07 PS=7.2e-07
mXI0<6>/XI4<4>/MM5 X4/X0/X0/X1/X8/noxref_31 WL<6> _BL_COL0<4>
+ X4/X0/X0/noxref_39 NMOS_VTG L=5e-08 W=9e-08 AD=2.445e-14 AS=1.26e-14 PD=7.2e-07
+ PS=4.6e-07
mXI0<6>/XI4<3>/MM6 BL_COL0<3> WL<6> X4/X0/X0/X1/X8/noxref_32 X4/X0/X0/noxref_39
+ NMOS_VTG L=5e-08 W=9e-08 AD=1.26e-14 AS=2.445e-14 PD=4.6e-07 PS=7.2e-07
mXI0<6>/XI4<3>/MM5 X4/X0/X0/X1/X8/noxref_33 WL<6> _BL_COL0<3>
+ X4/X0/X0/noxref_39 NMOS_VTG L=5e-08 W=9e-08 AD=2.445e-14 AS=1.26e-14 PD=7.2e-07
+ PS=4.6e-07
mXI0<6>/XI4<2>/MM6 BL_COL0<2> WL<6> X4/X0/X0/X1/X8/noxref_34 X4/X0/X0/noxref_39
+ NMOS_VTG L=5e-08 W=9e-08 AD=1.26e-14 AS=2.445e-14 PD=4.6e-07 PS=7.2e-07
mXI0<6>/XI4<2>/MM5 X4/X0/X0/X1/X8/noxref_35 WL<6> _BL_COL0<2>
+ X4/X0/X0/noxref_39 NMOS_VTG L=5e-08 W=9e-08 AD=2.445e-14 AS=1.26e-14 PD=7.2e-07
+ PS=4.6e-07
mXI0<6>/XI4<1>/MM6 BL_COL0<1> WL<6> X4/X0/X0/X1/X8/noxref_36 X4/X0/X0/noxref_39
+ NMOS_VTG L=5e-08 W=9e-08 AD=1.26e-14 AS=2.445e-14 PD=4.6e-07 PS=7.2e-07
mXI0<6>/XI4<1>/MM5 X4/X0/X0/X1/X8/noxref_37 WL<6> _BL_COL0<1>
+ X4/X0/X0/noxref_39 NMOS_VTG L=5e-08 W=9e-08 AD=2.445e-14 AS=1.26e-14 PD=7.2e-07
+ PS=4.6e-07
mXI0<6>/XI4<0>/MM6 BL_COL0<0> WL<6> X4/X0/X0/X1/noxref_40 X4/X0/X0/noxref_39
+ NMOS_VTG L=5e-08 W=9e-08 AD=1.26e-14 AS=2.445e-14 PD=4.6e-07 PS=7.2e-07
mXI0<6>/XI4<0>/MM5 X4/X0/X0/X1/noxref_41 WL<6> _BL_COL0<0> X4/X0/X0/noxref_39
+ NMOS_VTG L=5e-08 W=9e-08 AD=2.445e-14 AS=1.26e-14 PD=7.2e-07 PS=4.6e-07
mXI0<12>/XI4<6>/MM3 X4/X0/X0/X1/noxref_43 X4/X0/X0/X1/noxref_42 GND!
+ X4/X0/X0/noxref_39 NMOS_VTG L=5e-08 W=1.2e-07 AD=2.445e-14 AS=1.68e-14
+ PD=7.2e-07 PS=5.2e-07
mXI0<12>/XI4<6>/MM1 X4/X0/X0/X1/X9/noxref_26 X4/X0/X0/X1/X9/noxref_27 GND!
+ X4/X0/X0/noxref_39 NMOS_VTG L=5e-08 W=1.2e-07 AD=2.445e-14 AS=1.68e-14
+ PD=7.2e-07 PS=5.2e-07
mXI0<12>/XI4<5>/MM3 X4/X0/X0/X1/X9/noxref_27 X4/X0/X0/X1/X9/noxref_26 GND!
+ X4/X0/X0/noxref_39 NMOS_VTG L=5e-08 W=1.2e-07 AD=2.445e-14 AS=1.68e-14
+ PD=7.2e-07 PS=5.2e-07
mXI0<12>/XI4<5>/MM1 X4/X0/X0/X1/X9/noxref_28 X4/X0/X0/X1/X9/noxref_29 GND!
+ X4/X0/X0/noxref_39 NMOS_VTG L=5e-08 W=1.2e-07 AD=2.445e-14 AS=1.68e-14
+ PD=7.2e-07 PS=5.2e-07
mXI0<12>/XI4<4>/MM3 X4/X0/X0/X1/X9/noxref_29 X4/X0/X0/X1/X9/noxref_28 GND!
+ X4/X0/X0/noxref_39 NMOS_VTG L=5e-08 W=1.2e-07 AD=2.445e-14 AS=1.68e-14
+ PD=7.2e-07 PS=5.2e-07
mXI0<12>/XI4<4>/MM1 X4/X0/X0/X1/X9/noxref_30 X4/X0/X0/X1/X9/noxref_31 GND!
+ X4/X0/X0/noxref_39 NMOS_VTG L=5e-08 W=1.2e-07 AD=2.445e-14 AS=1.68e-14
+ PD=7.2e-07 PS=5.2e-07
mXI0<12>/XI4<3>/MM3 X4/X0/X0/X1/X9/noxref_31 X4/X0/X0/X1/X9/noxref_30 GND!
+ X4/X0/X0/noxref_39 NMOS_VTG L=5e-08 W=1.2e-07 AD=2.445e-14 AS=1.68e-14
+ PD=7.2e-07 PS=5.2e-07
mXI0<12>/XI4<3>/MM1 X4/X0/X0/X1/X9/noxref_32 X4/X0/X0/X1/X9/noxref_33 GND!
+ X4/X0/X0/noxref_39 NMOS_VTG L=5e-08 W=1.2e-07 AD=2.445e-14 AS=1.68e-14
+ PD=7.2e-07 PS=5.2e-07
mXI0<12>/XI4<2>/MM3 X4/X0/X0/X1/X9/noxref_33 X4/X0/X0/X1/X9/noxref_32 GND!
+ X4/X0/X0/noxref_39 NMOS_VTG L=5e-08 W=1.2e-07 AD=2.445e-14 AS=1.68e-14
+ PD=7.2e-07 PS=5.2e-07
mXI0<12>/XI4<2>/MM1 X4/X0/X0/X1/X9/noxref_34 X4/X0/X0/X1/X9/noxref_35 GND!
+ X4/X0/X0/noxref_39 NMOS_VTG L=5e-08 W=1.2e-07 AD=2.445e-14 AS=1.68e-14
+ PD=7.2e-07 PS=5.2e-07
mXI0<12>/XI4<1>/MM3 X4/X0/X0/X1/X9/noxref_35 X4/X0/X0/X1/X9/noxref_34 GND!
+ X4/X0/X0/noxref_39 NMOS_VTG L=5e-08 W=1.2e-07 AD=2.445e-14 AS=1.68e-14
+ PD=7.2e-07 PS=5.2e-07
mXI0<12>/XI4<1>/MM1 X4/X0/X0/X1/X9/noxref_36 X4/X0/X0/X1/X9/noxref_37 GND!
+ X4/X0/X0/noxref_39 NMOS_VTG L=5e-08 W=1.2e-07 AD=2.445e-14 AS=1.68e-14
+ PD=7.2e-07 PS=5.2e-07
mXI0<12>/XI4<0>/MM3 X4/X0/X0/X1/X9/noxref_37 X4/X0/X0/X1/X9/noxref_36 GND!
+ X4/X0/X0/noxref_39 NMOS_VTG L=5e-08 W=1.2e-07 AD=2.445e-14 AS=1.68e-14
+ PD=7.2e-07 PS=5.2e-07
mXI0<12>/XI4<0>/MM1 X4/X0/X0/X1/noxref_44 X4/X0/X0/X1/noxref_45 GND!
+ X4/X0/X0/noxref_39 NMOS_VTG L=5e-08 W=1.2e-07 AD=2.445e-14 AS=1.68e-14
+ PD=7.2e-07 PS=5.2e-07
mXI0<12>/XI4<6>/MM2 X4/X0/X0/X1/noxref_43 X4/X0/X0/X1/noxref_42 VDD!
+ X4/X0/noxref_41 PMOS_VTG L=5e-08 W=9e-08 AD=9e-15 AS=1.26e-14 PD=3.8e-07
+ PS=4.6e-07
mXI0<12>/XI4<6>/MM4 X4/X0/X0/X1/X9/noxref_26 X4/X0/X0/X1/X9/noxref_27 VDD!
+ X4/X0/noxref_41 PMOS_VTG L=5e-08 W=9e-08 AD=9e-15 AS=1.26e-14 PD=3.8e-07
+ PS=4.6e-07
mXI0<12>/XI4<5>/MM2 X4/X0/X0/X1/X9/noxref_27 X4/X0/X0/X1/X9/noxref_26 VDD!
+ X4/X0/noxref_41 PMOS_VTG L=5e-08 W=9e-08 AD=9e-15 AS=1.26e-14 PD=3.8e-07
+ PS=4.6e-07
mXI0<12>/XI4<5>/MM4 X4/X0/X0/X1/X9/noxref_28 X4/X0/X0/X1/X9/noxref_29 VDD!
+ X4/X0/noxref_41 PMOS_VTG L=5e-08 W=9e-08 AD=9e-15 AS=1.26e-14 PD=3.8e-07
+ PS=4.6e-07
mXI0<12>/XI4<4>/MM2 X4/X0/X0/X1/X9/noxref_29 X4/X0/X0/X1/X9/noxref_28 VDD!
+ X4/X0/noxref_41 PMOS_VTG L=5e-08 W=9e-08 AD=9e-15 AS=1.26e-14 PD=3.8e-07
+ PS=4.6e-07
mXI0<12>/XI4<4>/MM4 X4/X0/X0/X1/X9/noxref_30 X4/X0/X0/X1/X9/noxref_31 VDD!
+ X4/X0/noxref_41 PMOS_VTG L=5e-08 W=9e-08 AD=9e-15 AS=1.26e-14 PD=3.8e-07
+ PS=4.6e-07
mXI0<12>/XI4<3>/MM2 X4/X0/X0/X1/X9/noxref_31 X4/X0/X0/X1/X9/noxref_30 VDD!
+ X4/X0/noxref_41 PMOS_VTG L=5e-08 W=9e-08 AD=9e-15 AS=1.26e-14 PD=3.8e-07
+ PS=4.6e-07
mXI0<12>/XI4<3>/MM4 X4/X0/X0/X1/X9/noxref_32 X4/X0/X0/X1/X9/noxref_33 VDD!
+ X4/X0/noxref_41 PMOS_VTG L=5e-08 W=9e-08 AD=9e-15 AS=1.26e-14 PD=3.8e-07
+ PS=4.6e-07
mXI0<12>/XI4<2>/MM2 X4/X0/X0/X1/X9/noxref_33 X4/X0/X0/X1/X9/noxref_32 VDD!
+ X4/X0/noxref_41 PMOS_VTG L=5e-08 W=9e-08 AD=9e-15 AS=1.26e-14 PD=3.8e-07
+ PS=4.6e-07
mXI0<12>/XI4<2>/MM4 X4/X0/X0/X1/X9/noxref_34 X4/X0/X0/X1/X9/noxref_35 VDD!
+ X4/X0/noxref_41 PMOS_VTG L=5e-08 W=9e-08 AD=9e-15 AS=1.26e-14 PD=3.8e-07
+ PS=4.6e-07
mXI0<12>/XI4<1>/MM2 X4/X0/X0/X1/X9/noxref_35 X4/X0/X0/X1/X9/noxref_34 VDD!
+ X4/X0/noxref_41 PMOS_VTG L=5e-08 W=9e-08 AD=9e-15 AS=1.26e-14 PD=3.8e-07
+ PS=4.6e-07
mXI0<12>/XI4<1>/MM4 X4/X0/X0/X1/X9/noxref_36 X4/X0/X0/X1/X9/noxref_37 VDD!
+ X4/X0/noxref_41 PMOS_VTG L=5e-08 W=9e-08 AD=9e-15 AS=1.26e-14 PD=3.8e-07
+ PS=4.6e-07
mXI0<12>/XI4<0>/MM2 X4/X0/X0/X1/X9/noxref_37 X4/X0/X0/X1/X9/noxref_36 VDD!
+ X4/X0/noxref_41 PMOS_VTG L=5e-08 W=9e-08 AD=9e-15 AS=1.26e-14 PD=3.8e-07
+ PS=4.6e-07
mXI0<12>/XI4<0>/MM4 X4/X0/X0/X1/noxref_44 X4/X0/X0/X1/noxref_45 VDD!
+ X4/X0/noxref_41 PMOS_VTG L=5e-08 W=9e-08 AD=9e-15 AS=1.26e-14 PD=3.8e-07
+ PS=4.6e-07
mXI1<6>/XI4<7>/MM6 BL_COL1<7> WL<6> X4/X0/X0/X1/noxref_42 X4/X0/X0/noxref_39
+ NMOS_VTG L=5e-08 W=9e-08 AD=1.26e-14 AS=2.445e-14 PD=4.6e-07 PS=7.2e-07
mXI1<6>/XI4<7>/MM5 X4/X0/X0/X1/noxref_43 WL<6> _BL_COL1<7> X4/X0/X0/noxref_39
+ NMOS_VTG L=5e-08 W=9e-08 AD=2.445e-14 AS=1.26e-14 PD=7.2e-07 PS=4.6e-07
mXI1<6>/XI4<6>/MM6 BL_COL1<6> WL<6> X4/X0/X0/X1/X9/noxref_26 X4/X0/X0/noxref_39
+ NMOS_VTG L=5e-08 W=9e-08 AD=1.26e-14 AS=2.445e-14 PD=4.6e-07 PS=7.2e-07
mXI1<6>/XI4<6>/MM5 X4/X0/X0/X1/X9/noxref_27 WL<6> _BL_COL1<6>
+ X4/X0/X0/noxref_39 NMOS_VTG L=5e-08 W=9e-08 AD=2.445e-14 AS=1.26e-14 PD=7.2e-07
+ PS=4.6e-07
mXI1<6>/XI4<5>/MM6 BL_COL1<5> WL<6> X4/X0/X0/X1/X9/noxref_28 X4/X0/X0/noxref_39
+ NMOS_VTG L=5e-08 W=9e-08 AD=1.26e-14 AS=2.445e-14 PD=4.6e-07 PS=7.2e-07
mXI1<6>/XI4<5>/MM5 X4/X0/X0/X1/X9/noxref_29 WL<6> _BL_COL1<5>
+ X4/X0/X0/noxref_39 NMOS_VTG L=5e-08 W=9e-08 AD=2.445e-14 AS=1.26e-14 PD=7.2e-07
+ PS=4.6e-07